
  -ISIS-  08130814242D

 29 31  0  0  0  0  0  0  0  0999 V2000
    4.6792   -3.9500    0.0000 C   0  0  0  0  0  0  0  0  0  0  0  0
    8.2292   -1.8792    0.0000 S   0  0  3  0  0  0  0  0  0  0  0  0
    4.6750   -3.1250    0.0000 N   0  0  0  0  0  0  0  0  0  0  0  0
    4.6792   -5.6000    0.0000 N   0  0  0  0  0  0  0  0  0  0  0  0
    5.3958   -4.3625    0.0000 C   0  0  0  0  0  0  0  0  0  0  0  0
    3.9667   -4.3625    0.0000 C   0  0  0  0  0  0  0  0  0  0  0  0
    3.9667   -5.1875    0.0000 C   0  0  0  0  0  0  0  0  0  0  0  0
    5.3958   -5.1875    0.0000 C   0  0  0  0  0  0  0  0  0  0  0  0
    5.3875   -2.7042    0.0000 C   0  0  0  0  0  0  0  0  0  0  0  0
    7.5167   -1.4667    0.0000 N   0  0  0  0  0  0  0  0  0  0  0  0
    5.3875   -1.8875    0.0000 C   0  0  0  0  0  0  0  0  0  0  0  0
    6.0917   -1.4792    0.0000 C   0  0  0  0  0  0  0  0  0  0  0  0
    7.6417   -2.4667    0.0000 O   0  0  0  0  0  0  0  0  0  0  0  0
    8.8167   -2.4667    0.0000 O   0  0  0  0  0  0  0  0  0  0  0  0
    6.8083   -1.8875    0.0000 C   0  0  0  0  0  0  0  0  0  0  0  0
    6.0958   -3.1167    0.0000 C   0  0  0  0  0  0  0  0  0  0  0  0
    8.9417   -1.4667    0.0000 C   0  0  0  0  0  0  0  0  0  0  0  0
    6.8083   -2.7083    0.0000 C   0  0  0  0  0  0  0  0  0  0  0  0
    4.6667   -1.4750    0.0000 O   0  0  0  0  0  0  0  0  0  0  0  0
    6.1125   -3.9500    0.0000 C   0  0  0  0  0  0  0  0  0  0  0  0
    3.2500   -3.9542    0.0000 C   0  0  0  0  0  0  0  0  0  0  0  0
    3.2500   -5.6042    0.0000 C   0  0  0  0  0  0  0  0  0  0  0  0
    6.1125   -5.6000    0.0000 C   0  0  0  0  0  0  0  0  0  0  0  0
    3.9542   -1.8792    0.0000 C   0  0  0  0  0  0  0  0  0  0  0  0
    2.5417   -4.3667    0.0000 C   0  0  0  0  0  0  0  0  0  0  0  0
    6.8250   -4.3625    0.0000 C   0  0  0  0  0  0  0  0  0  0  0  0
    2.5417   -5.1917    0.0000 C   0  0  0  0  0  0  0  0  0  0  0  0
    6.8250   -5.1875    0.0000 C   0  0  0  0  0  0  0  0  0  0  0  0
    8.3917   -4.7125    0.0000 Cl  0  0  0  0  0  0  0  0  0  0  0  0
  2 10  1  0  0  0  0
  3  1  1  0  0  0  0
  4  7  1  0  0  0  0
  5  1  2  0  0  0  0
  6  1  1  0  0  0  0
  7  6  2  0  0  0  0
  8  5  1  0  0  0  0
  9  3  1  0  0  0  0
 10 15  1  0  0  0  0
 11  9  1  0  0  0  0
 12 11  2  0  0  0  0
 13  2  2  0  0  0  0
 14  2  2  0  0  0  0
 15 18  2  0  0  0  0
 16  9  2  0  0  0  0
 17  2  1  0  0  0  0
 18 16  1  0  0  0  0
 19 11  1  0  0  0  0
 20  5  1  0  0  0  0
 21  6  1  0  0  0  0
 22  7  1  0  0  0  0
 23  8  1  0  0  0  0
 24 19  1  0  0  0  0
 25 21  2  0  0  0  0
 26 20  2  0  0  0  0
 27 25  1  0  0  0  0
 28 26  1  0  0  0  0
  8  4  2  0  0  0  0
 27 22  2  0  0  0  0
 28 23  2  0  0  0  0
 15 12  1  0  0  0  0
M  END
> <#>
199

> <PLATE>
LAT003

> <ROW>
G

> <COL>
6

> <COORD>
G06

> <LATID>
LAT003G06

> <Supplier>
Sigma

> <Suplier_CAT#>
A 9809

> <Name>
Amsacrine Hydrochloride

> <Concentration_(mM)>
2.5

> <IC50_(µM)>
>100

> <Yeast_Active?>
-

> <Pubchem_CID>
2179

> <Description>
DNA topoisomerase II inhibitor

$$$$
