
  -ISIS-  08130814242D

 19 19  0  0  0  0  0  0  0  0999 V2000
   -0.8333    0.7000    0.0000 C   0  0  0  0  0  0  0  0  0  0  0  0
   -0.8333   -0.2375    0.0000 C   0  0  0  0  0  0  0  0  0  0  0  0
   -1.6458   -0.7042    0.0000 C   0  0  0  0  0  0  0  0  0  0  0  0
   -1.6458    1.1708    0.0000 C   0  0  0  0  0  0  0  0  0  0  0  0
   -0.1458    1.0500    0.0000 C   0  0  0  0  0  0  0  0  0  0  0  0
   -0.1458    1.6000    0.0000 O   0  0  0  0  0  0  0  0  0  0  0  0
   -2.4500   -0.2375    0.0000 C   0  0  0  0  0  0  0  0  0  0  0  0
   -0.2625   -0.5042    0.0000 O   0  0  0  0  0  0  0  0  0  0  0  0
   -2.4500    0.7000    0.0000 C   0  0  0  0  0  0  0  0  0  0  0  0
   -3.0500   -0.5667    0.0000 O   0  0  0  0  0  0  0  0  0  0  0  0
    0.3667    0.6833    0.0000 C   0  0  0  0  0  0  0  0  0  0  0  0
   -3.6333   -0.1792    0.0000 C   0  0  0  0  0  0  0  0  0  0  0  0
    0.9667    1.0708    0.0000 C   0  0  0  0  0  0  0  0  0  0  0  0
    2.9875    1.1500    0.0000 C   0  0  0  0  0  0  0  0  0  0  0  0
    2.5375    0.7208    0.0000 C   0  0  0  0  0  0  0  0  0  0  0  0
    1.5292    0.7000    0.0000 C   0  0  0  0  0  0  0  0  0  0  0  0
    2.0500    1.1333    0.0000 C   0  0  0  0  0  0  0  0  0  0  0  0
   -4.0625   -0.5500    0.0000 C   0  0  0  0  0  0  0  0  0  0  0  0
    3.4292    0.8208    0.0000 C   0  0  0  0  0  0  0  0  0  0  0  0
  2  1  2  0  0  0  0
  3  2  1  0  0  0  0
  4  1  1  0  0  0  0
  5  1  1  0  0  0  0
  6  5  2  0  0  0  0
  7  9  1  0  0  0  0
  8  2  1  0  0  0  0
  9  4  2  0  0  0  0
 10  7  1  0  0  0  0
 11  5  1  0  0  0  0
 12 10  1  0  0  0  0
 13 11  1  0  0  0  0
 14 15  1  0  0  0  0
 15 17  1  0  0  0  0
 16 13  1  0  0  0  0
 17 16  1  0  0  0  0
 18 12  1  0  0  0  0
 19 14  1  0  0  0  0
  3  7  2  0  0  0  0
M  END
> <#>
1153

> <PLATE>
LAT015

> <ROW>
A

> <COL>
6

> <COORD>
A06

> <LATID>
LAT015A06

> <Supplier>
Chembridge

> <Suplier_CAT#>
5100737

> <Name>
Novel

> <Concentration_(mM)>
2.5

> <IC50_(µM)>
>100

> <Yeast_Active?>
-

> <Pubchem_CID>
596743

$$$$
