
  -ISIS-  08130814242D

 35 38  0  0  0  0  0  0  0  0999 V2000
   -2.3500    2.1833    0.0000 C   0  0  0  0  0  0  0  0  0  0  0  0
   -2.5875    1.8458    0.0000 C   0  0  0  0  0  0  0  0  0  0  0  0
   -1.9583    1.6458    0.0000 C   0  0  0  0  0  0  0  0  0  0  0  0
   -1.9583    2.0583    0.0000 C   0  0  0  0  0  0  0  0  0  0  0  0
   -2.4875    2.5833    0.0000 C   0  0  0  0  0  0  0  0  0  0  0  0
   -2.3500    1.5208    0.0000 S   0  0  0  0  0  0  0  0  0  0  0  0
   -1.2333    1.6458    0.0000 N   0  0  3  0  0  0  0  0  0  0  0  0
   -0.8708    1.4333    0.0000 C   0  0  0  0  0  0  0  0  0  0  0  0
   -2.2083    2.9000    0.0000 N   0  0  0  0  0  0  0  0  0  0  0  0
   -1.5958    1.4333    0.0000 C   0  0  0  0  0  0  0  0  0  0  0  0
   -3.0083    1.8458    0.0000 N   0  0  0  0  0  0  0  0  0  0  0  0
   -2.3375    3.2958    0.0000 C   0  0  0  0  0  0  0  0  0  0  0  0
   -1.5958    2.2708    0.0000 C   0  0  0  0  0  0  0  0  0  0  0  0
   -2.7458    3.3833    0.0000 C   0  0  0  0  0  0  0  0  0  0  0  0
   -2.8708    3.7708    0.0000 C   0  0  0  0  0  0  0  0  0  0  0  0
   -1.2333    2.0583    0.0000 C   0  0  0  0  0  0  0  0  0  0  0  0
   -2.8958    2.6708    0.0000 O   0  0  0  0  0  0  0  0  0  0  0  0
   -0.8625    1.0125    0.0000 O   0  0  0  0  0  0  0  0  0  0  0  0
   -3.8375    1.8500    0.0000 N   0  0  0  0  0  0  0  0  0  0  0  0
   -2.0583    3.6083    0.0000 C   0  0  0  0  0  0  0  0  0  0  0  0
   -2.5958    4.0750    0.0000 C   0  0  0  0  0  0  0  0  0  0  0  0
   -0.5083    1.6458    0.0000 O   0  0  0  0  0  0  0  0  0  0  0  0
   -3.2125    1.4833    0.0000 C   0  0  0  0  0  0  0  0  0  0  0  0
   -3.6333    1.4875    0.0000 C   0  0  0  0  0  0  0  0  0  0  0  0
   -2.1875    3.9958    0.0000 C   0  0  0  0  0  0  0  0  0  0  0  0
   -3.0208    3.0833    0.0000 O   0  0  0  0  0  0  0  0  0  0  0  0
   -2.7208    4.4667    0.0000 O   0  0  0  0  0  0  0  0  0  0  0  0
   -4.2583    1.8500    0.0000 C   0  0  0  0  0  0  0  0  0  0  0  0
   -0.5125    2.0583    0.0000 C   0  0  0  0  0  0  0  0  0  0  0  0
   -3.8375    1.1333    0.0000 C   0  0  0  0  0  0  0  0  0  0  0  0
   -3.4208    3.1708    0.0000 C   0  0  0  0  0  0  0  0  0  0  0  0
   -2.4458    4.7750    0.0000 C   0  0  0  0  0  0  0  0  0  0  0  0
   -0.1583    2.2708    0.0000 C   0  0  0  0  0  0  0  0  0  0  0  0
   -4.4708    1.4958    0.0000 C   0  0  0  0  0  0  0  0  0  0  0  0
   -4.2583    1.1333    0.0000 C   0  0  0  0  0  0  0  0  0  0  0  0
  2  1  2  0  0  0  0
  3  4  2  0  0  0  0
  4  1  1  0  0  0  0
  5  1  1  0  0  0  0
  6  2  1  0  0  0  0
  7 16  1  0  0  0  0
  8  7  1  0  0  0  0
  9  5  1  0  0  0  0
 10  3  1  0  0  0  0
 11  2  1  0  0  0  0
 12  9  1  0  0  0  0
 13  4  1  0  0  0  0
 14 12  1  0  0  0  0
 15 14  2  0  0  0  0
 16 13  1  0  0  0  0
 17  5  2  0  0  0  0
 18  8  2  0  0  0  0
 19 24  1  0  0  0  0
 20 12  2  0  0  0  0
 21 25  2  0  0  0  0
 22  8  1  0  0  0  0
 23 11  1  0  0  0  0
 24 23  1  0  0  0  0
 25 20  1  0  0  0  0
 26 14  1  0  0  0  0
 27 21  1  0  0  0  0
 28 19  2  0  0  0  0
 29 22  1  0  0  0  0
 30 24  2  0  0  0  0
 31 26  1  0  0  0  0
 32 27  1  0  0  0  0
 33 29  1  0  0  0  0
 34 35  2  0  0  0  0
 35 30  1  0  0  0  0
  6  3  1  0  0  0  0
 10  7  1  0  0  0  0
 21 15  1  0  0  0  0
 34 28  1  0  0  0  0
M  END
> <#>
1561

> <PLATE>
LAT020

> <ROW>
A

> <COL>
7

> <COORD>
A07

> <LATID>
LAT020A07

> <Supplier>
Chembridge

> <Suplier_CAT#>
7615117

> <Name>
Novel

> <Concentration_(mM)>
2.5

> <IC50_(µM)>
>100

> <Yeast_Active?>
-

> <Pubchem_CID>
1050780

$$$$
