
  -ISIS-  08130814242D

 19 20  0  0  0  0  0  0  0  0999 V2000
   -0.9500   -0.0792    0.0000 C   0  0  0  0  0  0  0  0  0  0  0  0
   -0.1833   -0.5292    0.0000 C   0  0  0  0  0  0  0  0  0  0  0  0
   -1.7333   -0.5167    0.0000 C   0  0  0  0  0  0  0  0  0  0  0  0
   -2.5125   -0.0542    0.0000 C   0  0  0  0  0  0  0  0  0  0  0  0
   -3.2958   -0.5167    0.0000 C   0  0  0  0  0  0  0  0  0  0  0  0
   -0.2125   -1.4667    0.0000 C   0  0  0  0  0  0  0  0  0  0  0  0
    0.6042   -0.0792    0.0000 C   0  0  0  0  0  0  0  0  0  0  0  0
   -2.5125    0.8458    0.0000 O   0  0  0  0  0  0  0  0  0  0  0  0
   -4.0708   -0.0792    0.0000 C   0  0  0  0  0  0  0  0  0  0  0  0
   -3.2958   -1.4375    0.0000 C   0  0  0  0  0  0  0  0  0  0  0  0
    0.6042    0.8833    0.0000 Cl  0  0  0  0  0  0  0  0  0  0  0  0
   -0.9625   -1.9500    0.0000 Cl  0  0  0  0  0  0  0  0  0  0  0  0
   -4.8500   -1.4375    0.0000 C   0  0  0  0  0  0  0  0  0  0  0  0
   -4.0708   -1.8792    0.0000 C   0  0  0  0  0  0  0  0  0  0  0  0
   -4.8500   -0.5167    0.0000 C   0  0  0  0  0  0  0  0  0  0  0  0
   -5.6333   -1.9167    0.0000 O   0  0  0  0  0  0  0  0  0  0  0  0
    1.4167   -1.4667    0.0000 C   0  0  0  0  0  0  0  0  0  0  0  0
    1.4000   -0.5375    0.0000 C   0  0  0  0  0  0  0  0  0  0  0  0
    0.5792   -1.9292    0.0000 C   0  0  0  0  0  0  0  0  0  0  0  0
  2  1  1  0  0  0  0
  3  1  2  0  0  0  0
  4  3  1  0  0  0  0
  5  4  1  0  0  0  0
  6  2  1  0  0  0  0
  7  2  2  0  0  0  0
  8  4  2  0  0  0  0
  9  5  1  0  0  0  0
 10  5  2  0  0  0  0
 11  7  1  0  0  0  0
 12  6  1  0  0  0  0
 13 14  2  0  0  0  0
 14 10  1  0  0  0  0
 15  9  2  0  0  0  0
 16 13  1  0  0  0  0
 17 18  2  0  0  0  0
 18  7  1  0  0  0  0
 19  6  2  0  0  0  0
 19 17  1  0  0  0  0
 15 13  1  0  0  0  0
M  END
> <#>
1246

> <PLATE>
LAT016

> <ROW>
F

> <COL>
7

> <COORD>
F07

> <LATID>
LAT016F07

> <Supplier>
Chembridge

> <Suplier_CAT#>
6148793

> <Name>
Novel

> <Concentration_(mM)>
2.5

> <IC50_(µM)>
inactive

> <Yeast_Active?>
-

> <Pubchem_CID>
2778086

$$$$
