
  -ISIS-  08130814242D

 31 34  0  0  0  0  0  0  0  0999 V2000
    0.1042    1.1500    0.0000 N   0  0  3  0  0  0  0  0  0  0  0  0
   -0.8333   -0.0500    0.0000 C   0  0  0  0  0  0  0  0  0  0  0  0
   -0.3125   -0.7042    0.0000 C   0  0  0  0  0  0  0  0  0  0  0  0
   -0.6625    0.7833    0.0000 C   0  0  3  0  0  0  0  0  0  0  0  0
    0.1042    1.9958    0.0000 C   0  0  0  0  0  0  0  0  0  0  0  0
   -1.6500   -0.1667    0.0000 C   0  0  0  0  0  0  0  0  0  0  0  0
    0.5500   -0.7042    0.0000 N   0  0  0  0  0  0  0  0  0  0  0  0
    0.8500    2.4125    0.0000 C   0  0  3  0  0  0  0  0  0  0  0  0
    0.8667    0.7958    0.0000 C   0  0  0  0  0  0  0  0  0  0  0  0
    1.0667   -0.0500    0.0000 C   0  0  0  0  0  0  0  0  0  0  0  0
   -0.6125   -1.4875    0.0000 C   0  0  0  0  0  0  0  0  0  0  0  0
   -1.4333   -1.6042    0.0000 C   0  0  3  0  0  0  0  0  0  0  0  0
   -1.9708   -0.9500    0.0000 C   0  0  0  0  0  0  0  0  0  0  0  0
   -1.3708    1.1958    0.0000 C   0  0  0  0  0  0  0  0  0  0  0  0
   -0.6125    2.4125    0.0000 O   0  0  0  0  0  0  0  0  0  0  0  0
   -2.4958    0.2125    0.0000 O   0  0  0  0  0  0  0  0  0  0  0  0
    1.5667    2.8333    0.0000 F   0  0  0  0  0  0  0  0  0  0  0  0
    1.2667    1.6708    0.0000 F   0  0  0  0  0  0  0  0  0  0  0  0
    0.4292    3.1333    0.0000 F   0  0  0  0  0  0  0  0  0  0  0  0
   -2.1333    0.7625    0.0000 C   0  0  0  0  0  0  0  0  0  0  0  0
   -1.3708    2.0208    0.0000 C   0  0  0  0  0  0  0  0  0  0  0  0
   -2.8000    2.0333    0.0000 C   0  0  0  0  0  0  0  0  0  0  0  0
   -2.1125    2.4458    0.0000 C   0  0  0  0  0  0  0  0  0  0  0  0
   -2.8333    1.2125    0.0000 C   0  0  0  0  0  0  0  0  0  0  0  0
   -3.5625    2.4458    0.0000 Cl  0  0  0  0  0  0  0  0  0  0  0  0
    1.4875    1.3500    0.0000 C   0  0  0  0  0  0  0  0  0  0  0  0
    1.8667   -0.3042    0.0000 C   0  0  0  0  0  0  0  0  0  0  0  0
   -1.3125   -2.4500    0.0000 C   0  0  0  0  0  0  0  0  0  0  0  0
   -2.2125   -1.9500    0.0000 C   0  0  0  0  0  0  0  0  0  0  0  0
    2.2875    1.1125    0.0000 C   0  0  0  0  0  0  0  0  0  0  0  0
    2.4667    0.2708    0.0000 C   0  0  0  0  0  0  0  0  0  0  0  0
  2  4  1  0  0  0  0
  3  2  2  0  0  0  0
  4  1  1  0  0  0  0
  5  1  1  0  0  0  0
  6  2  1  0  0  0  0
  7 10  1  0  0  0  0
  8  5  1  0  0  0  0
  9  1  1  0  0  0  0
 10  9  2  0  0  0  0
 11  3  1  0  0  0  0
 12 13  1  0  0  0  0
 13  6  1  0  0  0  0
 14  4  1  0  0  0  0
 15  5  2  0  0  0  0
 16  6  2  0  0  0  0
 17  8  1  0  0  0  0
 18  8  1  0  0  0  0
 19  8  1  0  0  0  0
 20 14  1  0  0  0  0
 21 14  2  0  0  0  0
 22 23  2  0  0  0  0
 23 21  1  0  0  0  0
 24 20  2  0  0  0  0
 25 22  1  0  0  0  0
 26  9  1  0  0  0  0
 27 10  1  0  0  0  0
 28 12  1  0  0  0  0
 29 12  1  0  0  0  0
 30 26  2  0  0  0  0
 31 30  1  0  0  0  0
  7  3  1  0  0  0  0
 27 31  2  0  0  0  0
 24 22  1  0  0  0  0
 11 12  1  0  0  0  0
M  END
> <#>
823

> <PLATE>
LAT011

> <ROW>
G

> <COL>
4

> <COORD>
G04

> <LATID>
LAT011G04

> <Supplier>
Chembridge

> <Suplier_CAT#>
5629423

> <Name>
Novel

> <Sec_Name>
191_G05

> <Concentration_(mM)>
2.5

> <IC50_(µM)>
>100

> <Yeast_Active?>
-

> <Pubchem_CID>
1019606

$$$$
