
  -ISIS-  08130814242D

 18 19  0  0  0  0  0  0  0  0999 V2000
   -0.1833   -1.2292    0.0000 S   0  0  3  0  0  0  0  0  0  0  0  0
    0.2375   -0.5500    0.0000 N   0  0  3  0  0  0  0  0  0  0  0  0
   -0.8833   -0.8292    0.0000 C   0  0  0  0  0  0  0  0  0  0  0  0
    0.0000    0.2333    0.0000 C   0  0  0  0  0  0  0  0  0  0  0  0
    1.0167   -0.5500    0.0000 C   0  0  0  0  0  0  0  0  0  0  0  0
    1.2542    0.2125    0.0000 N   0  0  0  0  0  0  0  0  0  0  0  0
   -1.5625   -1.2292    0.0000 C   0  0  0  0  0  0  0  0  0  0  0  0
    0.6375    0.6708    0.0000 C   0  0  0  0  0  0  0  0  0  0  0  0
    0.5167   -1.6500    0.0000 O   0  0  0  0  0  0  0  0  0  0  0  0
   -0.6000   -1.9292    0.0000 O   0  0  0  0  0  0  0  0  0  0  0  0
   -0.8833   -0.0292    0.0000 C   0  0  0  0  0  0  0  0  0  0  0  0
   -2.2625   -0.8292    0.0000 C   0  0  0  0  0  0  0  0  0  0  0  0
   -2.2833   -0.0292    0.0000 C   0  0  0  0  0  0  0  0  0  0  0  0
   -1.5625    0.3958    0.0000 C   0  0  0  0  0  0  0  0  0  0  0  0
   -1.5625   -2.0292    0.0000 O   0  0  0  0  0  0  0  0  0  0  0  0
   -3.0000    0.3958    0.0000 F   0  0  0  0  0  0  0  0  0  0  0  0
    0.3667    1.5458    0.0000 C   0  0  0  0  0  0  0  0  0  0  0  0
   -0.8833   -2.4292    0.0000 C   0  0  0  0  0  0  0  0  0  0  0  0
  2  1  1  0  0  0  0
  3  1  1  0  0  0  0
  4  2  1  0  0  0  0
  5  2  1  0  0  0  0
  6  5  2  0  0  0  0
  7  3  1  0  0  0  0
  8  4  2  0  0  0  0
  9  1  2  0  0  0  0
 10  1  2  0  0  0  0
 11  3  2  0  0  0  0
 12  7  2  0  0  0  0
 13 14  2  0  0  0  0
 14 11  1  0  0  0  0
 15  7  1  0  0  0  0
 16 13  1  0  0  0  0
 17  8  1  0  0  0  0
 18 15  1  0  0  0  0
  8  6  1  0  0  0  0
 12 13  1  0  0  0  0
M  END
> <#>
2066

> <PLATE>
LAT026

> <ROW>
B

> <COL>
10

> <COORD>
B10

> <LATID>
LAT026B10

> <Supplier>
Chembridge

> <Suplier_CAT#>
5652292

> <Sec_Name>
201_C09

> <Concentration_(mM)>
2.5

> <IC50_(µM)>
100

> <Yeast_Active?>
-

> <Pubchem_CID>
873065

$$$$
