
  -ISIS-  08130814242D

 22 23  0  0  0  0  0  0  0  0999 V2000
    0.9542   -9.8792    0.0000 S   0  0  3  0  0  0  0  0  0  0  0  0
   -1.4333   -8.3542    0.0000 N   0  3  0  0  0  0  0  0  0  0  0  0
   -0.8208   -9.2542    0.0000 C   0  0  0  0  0  0  0  0  0  0  0  0
   -0.1000   -9.2542    0.0000 C   0  0  0  0  0  0  0  0  0  0  0  0
    0.2375   -9.8792    0.0000 C   0  0  0  0  0  0  0  0  0  0  0  0
    1.7042   -9.8875    0.0000 N   0  0  0  0  0  0  0  0  0  0  0  0
    0.9542  -10.5875    0.0000 O   0  0  0  0  0  0  0  0  0  0  0  0
    0.9542   -9.1542    0.0000 O   0  0  0  0  0  0  0  0  0  0  0  0
   -0.9708   -7.3667    0.0000 O   0  5  0  0  0  0  0  0  0  0  0  0
   -2.5208   -8.4375    0.0000 O   0  0  0  0  0  0  0  0  0  0  0  0
    3.2167   -8.6000    0.0000 C   0  0  0  0  0  0  0  0  0  0  0  0
    2.0875   -9.2375    0.0000 C   0  0  0  0  0  0  0  0  0  0  0  0
   -1.1833   -9.8792    0.0000 C   0  0  0  0  0  0  0  0  0  0  0  0
    2.8375   -7.9500    0.0000 C   0  0  0  0  0  0  0  0  0  0  0  0
    2.8375   -9.2500    0.0000 C   0  0  0  0  0  0  0  0  0  0  0  0
   -0.1000  -10.4875    0.0000 C   0  0  0  0  0  0  0  0  0  0  0  0
   -0.8208  -10.4875    0.0000 C   0  0  0  0  0  0  0  0  0  0  0  0
    2.1000   -7.9500    0.0000 C   0  0  0  0  0  0  0  0  0  0  0  0
    1.7167   -8.5875    0.0000 C   0  0  0  0  0  0  0  0  0  0  0  0
    3.2167   -7.3000    0.0000 Br  0  0  0  0  0  0  0  0  0  0  0  0
    3.9667   -8.6042    0.0000 C   0  0  0  0  0  0  0  0  0  0  0  0
   -1.9333   -9.8792    0.0000 C   0  0  0  0  0  0  0  0  0  0  0  0
  2  3  1  0  0  0  0
  3  4  1  0  0  0  0
  4  5  2  0  0  0  0
  5  1  1  0  0  0  0
  6  1  1  0  0  0  0
  7  1  2  0  0  0  0
  8  1  2  0  0  0  0
  9  2  1  0  0  0  0
 10  2  2  0  0  0  0
 11 15  1  0  0  0  0
 12  6  1  0  0  0  0
 13 17  1  0  0  0  0
 14 18  1  0  0  0  0
 15 12  2  0  0  0  0
 16  5  1  0  0  0  0
 17 16  2  0  0  0  0
 18 19  2  0  0  0  0
 19 12  1  0  0  0  0
 20 14  1  0  0  0  0
 21 11  1  0  0  0  0
 22 13  1  0  0  0  0
  3 13  2  0  0  0  0
 11 14  2  0  0  0  0
M  CHG  2   2   1   9  -1
M  END
> <#>
1071

> <PLATE>
LAT014

> <ROW>
G

> <COL>
5

> <COORD>
G05

> <LATID>
LAT014G05

> <Supplier>
Chembridge

> <Suplier_CAT#>
5529100

> <Name>
Novel

> <Sec_Name>
151_F07

> <Concentration_(mM)>
2.5

> <IC50_(µM)>
>100

> <Yeast_Active?>
-

> <Pubchem_CID>
2850169

$$$$
