
  -ISIS-  08130814242D

 26 29  0  0  0  0  0  0  0  0999 V2000
   -1.0458    6.3875    0.0000 C   0  0  0  0  0  0  0  0  0  0  0  0
   -1.0458    3.0458    0.0000 C   0  0  3  0  0  0  0  0  0  0  0  0
    1.9542    8.1542    0.0000 N   0  0  0  0  0  0  0  0  0  0  0  0
   10.8042    6.3875    0.0000 C   0  0  0  0  0  0  0  0  0  0  0  0
    7.8542    8.0542    0.0000 C   0  0  0  0  0  0  0  0  0  0  0  0
   10.8042    2.9583    0.0000 C   0  0  0  0  0  0  0  0  0  0  0  0
   14.0292    7.4667    0.0000 O   0  0  0  0  0  0  0  0  0  0  0  0
    4.9042    6.3875    0.0000 C   0  0  0  0  0  0  0  0  0  0  0  0
   -4.0000    8.1542    0.0000 O   0  0  0  0  0  0  0  0  0  0  0  0
   14.0292    1.9625    0.0000 O   0  0  0  0  0  0  0  0  0  0  0  0
   16.0000    4.7167    0.0000 C   0  0  0  0  0  0  0  0  0  0  0  0
   -4.4583    3.0458    0.0000 C   0  0  0  0  0  0  0  0  0  0  0  0
   -1.0458   -0.3875    0.0000 C   0  0  0  0  0  0  0  0  0  0  0  0
    7.8542    1.2708    0.0000 C   0  0  0  0  0  0  0  0  0  0  0  0
    2.4167    3.0458    0.0000 O   0  0  0  0  0  0  0  0  0  0  0  0
    4.9042    2.9583    0.0000 C   0  0  0  0  0  0  0  0  0  0  0  0
   -6.1542    6.0000    0.0000 C   0  0  0  0  0  0  0  0  0  0  0  0
   -6.1542    0.0958    0.0000 C   0  0  0  0  0  0  0  0  0  0  0  0
    1.9542   -2.0542    0.0000 C   0  0  0  0  0  0  0  0  0  0  0  0
   -4.0000   -2.0542    0.0000 C   0  0  0  0  0  0  0  0  0  0  0  0
   -9.5667    0.0958    0.0000 C   0  0  0  0  0  0  0  0  0  0  0  0
   -9.5667    6.0000    0.0000 C   0  0  0  0  0  0  0  0  0  0  0  0
    1.9542   -5.5000    0.0000 C   0  0  0  0  0  0  0  0  0  0  0  0
   -4.0000   -5.5000    0.0000 C   0  0  0  0  0  0  0  0  0  0  0  0
  -11.2667    3.0458    0.0000 C   0  0  0  0  0  0  0  0  0  0  0  0
   -1.0458   -7.1792    0.0000 C   0  0  0  0  0  0  0  0  0  0  0  0
  2  1  1  0  0  0  0
  3  1  1  0  0  0  0
  4  5  2  0  0  0  0
  5  8  1  0  0  0  0
  6 14  2  0  0  0  0
  7  4  1  0  0  0  0
  8  3  1  0  0  0  0
  9  1  2  0  0  0  0
 10  6  1  0  0  0  0
 11  7  1  0  0  0  0
 12  2  1  0  0  0  0
 13  2  1  0  0  0  0
 14 16  1  0  0  0  0
 15  2  1  0  0  0  0
 16  8  2  0  0  0  0
 17 12  2  0  0  0  0
 18 12  1  0  0  0  0
 19 13  1  0  0  0  0
 20 13  2  0  0  0  0
 21 18  2  0  0  0  0
 22 17  1  0  0  0  0
 23 19  2  0  0  0  0
 24 20  1  0  0  0  0
 25 21  1  0  0  0  0
 26 24  2  0  0  0  0
  6  4  1  0  0  0  0
 26 23  1  0  0  0  0
 22 25  2  0  0  0  0
 10 11  1  0  0  0  0
M  END
> <#>
993

> <PLATE>
LAT013

> <ROW>
A

> <COL>
6

> <COORD>
A06

> <LATID>
LAT013A06

> <Supplier>
Chembridge

> <Suplier_CAT#>
5245729

> <Name>
Phoboxamide

> <Concentration_(mM)>
2.5

> <IC50_(µM)>
0.7

> <Yeast_Active?>
-

> <Pubchem_CID>
790265

> <Comment>
SS10

$$$$
