
  -ISIS-  08130814242D

 20 21  0  0  0  0  0  0  0  0999 V2000
   -0.1708    0.6125    0.0000 C   0  0  0  0  0  0  0  0  0  0  0  0
   -0.5708    1.2125    0.0000 N   0  0  0  0  0  0  0  0  0  0  0  0
   -0.5708    0.0333    0.0000 N   0  0  0  0  0  0  0  0  0  0  0  0
   -1.2708    0.9958    0.0000 C   0  0  0  0  0  0  0  0  0  0  0  0
   -1.2708    0.2500    0.0000 C   0  0  0  0  0  0  0  0  0  0  0  0
   -1.9125    1.3708    0.0000 C   0  0  0  0  0  0  0  0  0  0  0  0
    0.5875    0.5708    0.0000 S   0  0  0  0  0  0  0  0  0  0  0  0
    2.0500    0.5333    0.0000 C   0  0  3  0  0  0  0  0  0  0  0  0
   -1.9125   -0.1292    0.0000 C   0  0  0  0  0  0  0  0  0  0  0  0
    0.9292   -0.0875    0.0000 C   0  0  0  0  0  0  0  0  0  0  0  0
    1.6667   -0.1042    0.0000 C   0  0  3  0  0  0  0  0  0  0  0  0
   -2.5500    0.9958    0.0000 C   0  0  0  0  0  0  0  0  0  0  0  0
   -2.5500    0.2500    0.0000 C   0  0  0  0  0  0  0  0  0  0  0  0
    2.0292   -0.7500    0.0000 O   0  0  0  0  0  0  0  0  0  0  0  0
   -3.2125    1.3708    0.0000 O   0  0  0  0  0  0  0  0  0  0  0  0
    2.6875    0.1500    0.0000 C   0  0  0  0  0  0  0  0  0  0  0  0
    1.4042    0.9333    0.0000 C   0  0  0  0  0  0  0  0  0  0  0  0
    2.4292    1.1708    0.0000 C   0  0  0  0  0  0  0  0  0  0  0  0
   -3.2125    2.1125    0.0000 C   0  0  0  0  0  0  0  0  0  0  0  0
   -3.8500    2.4708    0.0000 C   0  0  0  0  0  0  0  0  0  0  0  0
  2  1  2  0  0  0  0
  3  1  1  0  0  0  0
  4  2  1  0  0  0  0
  5  3  1  0  0  0  0
  6  4  1  0  0  0  0
  7  1  1  0  0  0  0
  8 11  1  0  0  0  0
  9  5  1  0  0  0  0
 10  7  1  0  0  0  0
 11 10  1  0  0  0  0
 12  6  2  0  0  0  0
 13  9  2  0  0  0  0
 14 11  1  0  0  0  0
 15 12  1  0  0  0  0
 16  8  1  0  0  0  0
 17  8  1  0  0  0  0
 18  8  1  0  0  0  0
 19 15  1  0  0  0  0
 20 19  1  0  0  0  0
  4  5  2  0  0  0  0
 12 13  1  0  0  0  0
M  END
> <#>
806

> <PLATE>
LAT011

> <ROW>
F

> <COL>
2

> <COORD>
F02

> <LATID>
LAT011F02

> <Supplier>
Chembridge

> <Suplier_CAT#>
5658122

> <Name>
Novel

> <Sec_Name>
204_F07

> <Concentration_(mM)>
2.5

> <IC50_(µM)>
9.6

> <Yeast_Active?>
-

> <Pubchem_CID>
NULL

$$$$
