
  -ISIS-  08130814242D

 24 26  0  0  0  0  0  0  0  0999 V2000
    1.1375    0.5458    0.0000 C   0  0  0  0  0  0  0  0  0  0  0  0
   -2.0458    2.3500    0.0000 C   0  0  0  0  0  0  0  0  0  0  0  0
    0.3500    0.9833    0.0000 N   0  0  3  0  0  0  0  0  0  0  0  0
   -1.2500    1.9000    0.0000 N   0  0  3  0  0  0  0  0  0  0  0  0
   -2.8333    1.8958    0.0000 C   0  0  0  0  0  0  0  0  0  0  0  0
    1.9375    1.0000    0.0000 N   0  0  0  0  0  0  0  0  0  0  0  0
    4.3500    0.5500    0.0000 C   0  0  0  0  0  0  0  0  0  0  0  0
    3.5500    1.0125    0.0000 C   0  0  0  0  0  0  0  0  0  0  0  0
   -2.9000    1.0000    0.0000 O   0  0  0  0  0  0  0  0  0  0  0  0
    2.7500    0.5458    0.0000 C   0  0  0  0  0  0  0  0  0  0  0  0
    1.1375   -0.3667    0.0000 O   0  0  0  0  0  0  0  0  0  0  0  0
    0.3500    1.9000    0.0000 C   0  0  0  0  0  0  0  0  0  0  0  0
   -0.4458    0.5208    0.0000 C   0  0  0  0  0  0  0  0  0  0  0  0
   -1.2500    0.9833    0.0000 C   0  0  0  0  0  0  0  0  0  0  0  0
   -0.4500    2.3625    0.0000 C   0  0  0  0  0  0  0  0  0  0  0  0
    4.3500   -0.3667    0.0000 C   0  0  0  0  0  0  0  0  0  0  0  0
   -2.0458    3.2708    0.0000 O   0  0  0  0  0  0  0  0  0  0  0  0
   -3.6333    2.2708    0.0000 C   0  0  0  0  0  0  0  0  0  0  0  0
   -3.8208    0.8125    0.0000 C   0  0  0  0  0  0  0  0  0  0  0  0
   -4.2833    1.6000    0.0000 C   0  0  0  0  0  0  0  0  0  0  0  0
    3.5500   -0.8375    0.0000 C   0  0  0  0  0  0  0  0  0  0  0  0
    5.1375    1.0125    0.0000 Cl  0  0  0  0  0  0  0  0  0  0  0  0
    2.7500   -0.3792    0.0000 C   0  0  0  0  0  0  0  0  0  0  0  0
    5.1500   -0.8042    0.0000 Cl  0  0  0  0  0  0  0  0  0  0  0  0
  2  4  1  0  0  0  0
  3  1  1  0  0  0  0
  4 14  1  0  0  0  0
  5  2  1  0  0  0  0
  6  1  1  0  0  0  0
  7  8  1  0  0  0  0
  8 10  2  0  0  0  0
  9  5  1  0  0  0  0
 10  6  1  0  0  0  0
 11  1  2  0  0  0  0
 12  3  1  0  0  0  0
 13  3  1  0  0  0  0
 14 13  1  0  0  0  0
 15 12  1  0  0  0  0
 16 21  1  0  0  0  0
 17  2  2  0  0  0  0
 18  5  2  0  0  0  0
 19  9  1  0  0  0  0
 20 18  1  0  0  0  0
 21 23  2  0  0  0  0
 22  7  1  0  0  0  0
 23 10  1  0  0  0  0
 24 16  1  0  0  0  0
 15  4  1  0  0  0  0
  7 16  2  0  0  0  0
 20 19  2  0  0  0  0
M  END
> <#>
829

> <PLATE>
LAT011

> <ROW>
E

> <COL>
5

> <COORD>
E05

> <LATID>
LAT011E05

> <Supplier>
Chembridge

> <Suplier_CAT#>
5632036

> <Name>
Novel

> <Sec_Name>
192_D07

> <Concentration_(mM)>
2.5

> <IC50_(µM)>
52

> <Yeast_Active?>
-

> <Pubchem_CID>
1129472

$$$$
