
  -ISIS-  08130814242D

 17 18  0  0  0  0  0  0  0  0999 V2000
   -4.5708    0.6125    0.0000 N   0  3  0  0  0  0  0  0  0  0  0  0
   -0.8500    0.6125    0.0000 N   0  0  3  0  0  0  0  0  0  0  0  0
   -3.6333    0.6125    0.0000 C   0  0  0  0  0  0  0  0  0  0  0  0
   -1.7958    0.6125    0.0000 C   0  0  0  0  0  0  0  0  0  0  0  0
   -2.2500   -0.1875    0.0000 N   0  0  0  0  0  0  0  0  0  0  0  0
   -5.0333    1.4125    0.0000 O   0  5  0  0  0  0  0  0  0  0  0  0
   -3.1708   -0.1875    0.0000 C   0  0  0  0  0  0  0  0  0  0  0  0
   -0.3958    1.4125    0.0000 C   0  0  0  0  0  0  0  0  0  0  0  0
   -5.0333   -0.1875    0.0000 O   0  0  0  0  0  0  0  0  0  0  0  0
   -3.1958    1.4125    0.0000 C   0  0  0  0  0  0  0  0  0  0  0  0
   -2.2500    1.4125    0.0000 C   0  0  0  0  0  0  0  0  0  0  0  0
    0.5500    1.4125    0.0000 C   0  0  3  0  0  0  0  0  0  0  0  0
   -0.3958   -0.1875    0.0000 C   0  0  0  0  0  0  0  0  0  0  0  0
    0.5667    3.0333    0.0000 O   0  0  0  0  0  0  0  0  0  0  0  0
    0.5667   -0.1667    0.0000 C   0  0  0  0  0  0  0  0  0  0  0  0
    1.0292    2.2125    0.0000 C   0  0  0  0  0  0  0  0  0  0  0  0
    1.0042    0.6125    0.0000 C   0  0  0  0  0  0  0  0  0  0  0  0
  2  4  1  0  0  0  0
  3  1  1  0  0  0  0
  4 11  2  0  0  0  0
  5  7  2  0  0  0  0
  6  1  1  0  0  0  0
  7  3  1  0  0  0  0
  8  2  1  0  0  0  0
  9  1  2  0  0  0  0
 10  3  2  0  0  0  0
 11 10  1  0  0  0  0
 12  8  1  0  0  0  0
 13  2  1  0  0  0  0
 14 16  1  0  0  0  0
 15 13  1  0  0  0  0
 16 12  1  0  0  0  0
 17 15  1  0  0  0  0
  4  5  1  0  0  0  0
 17 12  1  0  0  0  0
M  CHG  2   1   1   6  -1
M  END
> <#>
2016

> <PLATE>
LAT026

> <ROW>
H

> <COL>
3

> <COORD>
H03

> <LATID>
LAT026H03

> <Supplier>
Chembridge

> <Suplier_CAT#>
5666651

> <Sec_Name>
208_E03

> <Concentration_(mM)>
2.5

> <IC50_(µM)>
inactive

> <Yeast_Active?>
-

> <Pubchem_CID>
2859766

$$$$
