
  -ISIS-  08130814242D

 25 26  0  0  0  0  0  0  0  0999 V2000
    1.8667   -3.8042    0.0000 C   0  0  0  0  0  0  0  0  0  0  0  0
    3.6042   -3.8042    0.0000 C   0  0  0  0  0  0  0  0  0  0  0  0
    2.7375   -3.3042    0.0000 C   0  0  3  0  0  0  0  0  0  0  0  0
    1.8667   -4.8042    0.0000 C   0  0  0  0  0  0  0  0  0  0  0  0
    0.8917   -3.1542    0.0000 N   0  3  0  0  0  0  0  0  0  0  0  0
    3.6042   -4.8042    0.0000 C   0  0  0  0  0  0  0  0  0  0  0  0
    2.7375   -5.3042    0.0000 N   0  0  0  0  0  0  0  0  0  0  0  0
    2.7375   -0.8417    0.0000 C   0  0  0  0  0  0  0  0  0  0  0  0
    4.1125   -0.5625    0.0000 C   0  0  3  0  0  0  0  0  0  0  0  0
    3.6042   -0.3500    0.0000 C   0  0  0  0  0  0  0  0  0  0  0  0
    4.4667   -3.3042    0.0000 C   0  0  0  0  0  0  0  0  0  0  0  0
    0.8917   -1.9917    0.0000 O   0  5  0  0  0  0  0  0  0  0  0  0
    0.0875   -3.8417    0.0000 O   0  0  0  0  0  0  0  0  0  0  0  0
    4.4250   -2.7417    0.0000 O   0  0  0  0  0  0  0  0  0  0  0  0
    4.2667   -1.5917    0.0000 F   0  0  0  0  0  0  0  0  0  0  0  0
    5.0875   -0.1917    0.0000 F   0  0  0  0  0  0  0  0  0  0  0  0
    4.9000   -1.0250    0.0000 F   0  0  0  0  0  0  0  0  0  0  0  0
    5.3542   -3.7667    0.0000 O   0  0  0  0  0  0  0  0  0  0  0  0
    4.2792   -5.2167    0.0000 C   0  0  0  0  0  0  0  0  0  0  0  0
    1.2292   -5.1667    0.0000 C   0  0  0  0  0  0  0  0  0  0  0  0
    1.8667   -0.3500    0.0000 C   0  0  0  0  0  0  0  0  0  0  0  0
    3.6042    0.6500    0.0000 C   0  0  0  0  0  0  0  0  0  0  0  0
    6.3542   -3.7792    0.0000 C   0  0  0  0  0  0  0  0  0  0  0  0
    1.8667    0.6500    0.0000 C   0  0  0  0  0  0  0  0  0  0  0  0
    2.7375    1.1583    0.0000 C   0  0  0  0  0  0  0  0  0  0  0  0
  2  3  1  0  0  0  0
  3  1  1  0  0  0  0
  4  1  2  0  0  0  0
  5  1  1  0  0  0  0
  6  7  1  0  0  0  0
  7  4  1  0  0  0  0
  8  3  1  0  0  0  0
  9 10  1  0  0  0  0
 10  8  1  0  0  0  0
 11  2  1  0  0  0  0
 12  5  1  0  0  0  0
 13  5  2  0  0  0  0
 14 11  2  0  0  0  0
 15  9  1  0  0  0  0
 16  9  1  0  0  0  0
 17  9  1  0  0  0  0
 18 11  1  0  0  0  0
 19  6  1  0  0  0  0
 20  4  1  0  0  0  0
 21  8  2  0  0  0  0
 22 10  2  0  0  0  0
 23 18  1  0  0  0  0
 24 21  1  0  0  0  0
 25 24  2  0  0  0  0
  6  2  2  0  0  0  0
 22 25  1  0  0  0  0
M  CHG  2   5   1  12  -1
M  END
> <#>
207

> <PLATE>
LAT003

> <ROW>
G

> <COL>
7

> <COORD>
G07

> <LATID>
LAT003G07

> <Supplier>
Sigma

> <Suplier_CAT#>
B-112

> <Name>
(±)-Bay K 8644

> <Concentration_(mM)>
2.5

> <IC50_(µM)>
26

> <Yeast_Active?>
-

> <Pubchem_CID>
82574

> <Description>
L-type Ca2+ channel agonist

$$$$
