
  -ISIS-  08130814242D

 20 21  0  0  0  0  0  0  0  0999 V2000
   -0.2208   -1.6792    0.0000 C   0  0  0  0  0  0  0  0  0  0  0  0
    0.5875   -1.2042    0.0000 C   0  0  3  0  0  0  0  0  0  0  0  0
   -0.2208   -2.6167    0.0000 C   0  0  0  0  0  0  0  0  0  0  0  0
    1.4000   -2.6167    0.0000 C   0  0  0  0  0  0  0  0  0  0  0  0
    0.5875   -3.0875    0.0000 N   0  0  0  0  0  0  0  0  0  0  0  0
    1.4000   -1.6792    0.0000 N   0  0  0  0  0  0  0  0  0  0  0  0
   -1.0333   -1.2042    0.0000 C   0  0  0  0  0  0  0  0  0  0  0  0
    0.5875   -0.2792    0.0000 C   0  0  0  0  0  0  0  0  0  0  0  0
    2.1292   -3.0500    0.0000 S   0  0  0  0  0  0  0  0  0  0  0  0
    1.4000    0.1958    0.0000 C   0  0  0  0  0  0  0  0  0  0  0  0
   -1.0458   -0.6542    0.0000 O   0  0  0  0  0  0  0  0  0  0  0  0
    1.4000    1.1333    0.0000 C   0  0  0  0  0  0  0  0  0  0  0  0
   -1.8333   -1.6792    0.0000 O   0  0  0  0  0  0  0  0  0  0  0  0
   -1.1500   -3.1375    0.0000 C   0  0  0  0  0  0  0  0  0  0  0  0
    2.3792    1.7458    0.0000 Cl  0  0  0  0  0  0  0  0  0  0  0  0
   -0.2208    0.1958    0.0000 C   0  0  0  0  0  0  0  0  0  0  0  0
   -0.2208    1.1333    0.0000 C   0  0  0  0  0  0  0  0  0  0  0  0
    0.5875    1.6000    0.0000 C   0  0  0  0  0  0  0  0  0  0  0  0
   -2.7458   -1.1667    0.0000 C   0  0  0  0  0  0  0  0  0  0  0  0
   -3.5458   -1.6792    0.0000 C   0  0  0  0  0  0  0  0  0  0  0  0
  2  1  1  0  0  0  0
  3  1  2  0  0  0  0
  4  5  1  0  0  0  0
  5  3  1  0  0  0  0
  6  2  1  0  0  0  0
  7  1  1  0  0  0  0
  8  2  1  0  0  0  0
  9  4  2  0  0  0  0
 10  8  2  0  0  0  0
 11  7  2  0  0  0  0
 12 10  1  0  0  0  0
 13  7  1  0  0  0  0
 14  3  1  0  0  0  0
 15 12  1  0  0  0  0
 16  8  1  0  0  0  0
 17 16  2  0  0  0  0
 18 17  1  0  0  0  0
 19 13  1  0  0  0  0
 20 19  1  0  0  0  0
  4  6  1  0  0  0  0
 18 12  2  0  0  0  0
M  END
> <#>
1850

> <PLATE>
LAT024

> <ROW>
B

> <COL>
3

> <COORD>
B03

> <LATID>
LAT024B03

> <Supplier>
Chembridge

> <Suplier_CAT#>
5721420

> <Name>
Novel

> <Sec_Name>
229_E08

> <Concentration_(mM)>
2.5

> <IC50_(µM)>
13

> <Yeast_Active?>
-

> <Pubchem_CID>
746728

$$$$
