
  -ISIS-  08130814242D

 35 40  0  0  0  0  0  0  0  0999 V2000
    6.7375   -3.3292    0.0000 C   0  0  2  0  0  0  0  0  0  0  0  0
    7.6042   -3.8042    0.0000 C   0  0  2  0  0  0  0  0  0  0  0  0
    5.8542   -3.8042    0.0000 C   0  0  1  0  0  0  0  0  0  0  0  0
    6.7375   -2.3042    0.0000 C   0  0  2  0  0  0  0  0  0  0  0  0
    6.7625   -4.2667    0.0000 O   0  0  0  0  0  0  0  0  0  0  0  0
    4.0750   -3.8042    0.0000 C   0  0  2  0  0  0  0  0  0  0  0  0
    4.9542   -3.3292    0.0000 C   0  0  3  0  0  0  0  0  0  0  0  0
    8.4750   -3.3292    0.0000 C   0  0  0  0  0  0  0  0  0  0  0  0
    4.0750   -4.8292    0.0000 C   0  0  3  0  0  0  0  0  0  0  0  0
    7.6042   -1.7792    0.0000 C   0  0  1  0  0  0  0  0  0  0  0  0
    8.4750   -2.3042    0.0000 O   0  0  0  0  0  0  0  0  0  0  0  0
    5.8542   -4.8042    0.0000 C   0  0  1  0  0  0  0  0  0  0  0  0
    3.2042   -5.3542    0.0000 C   0  0  3  0  0  0  0  0  0  0  0  0
    3.2042   -3.3292    0.0000 C   0  0  0  0  0  0  0  0  0  0  0  0
    7.6042   -0.9542    0.0000 C   0  0  0  0  0  0  0  0  0  0  0  0
    4.9917   -5.3042    0.0000 C   0  0  0  0  0  0  0  0  0  0  0  0
    5.8542   -1.7792    0.0000 C   0  0  0  0  0  0  0  0  0  0  0  0
    2.3167   -4.8292    0.0000 C   0  0  0  0  0  0  0  0  0  0  0  0
    2.3167   -3.8042    0.0000 C   0  0  0  0  0  0  0  0  0  0  0  0
    4.9542   -2.3042    0.0000 C   0  0  0  0  0  0  0  0  0  0  0  0
    6.7250   -5.3167    0.0000 O   0  0  0  0  0  0  0  0  0  0  0  0
    6.7250   -6.2917    0.0000 C   0  0  0  0  0  0  0  0  0  0  0  0
    9.3625   -3.8417    0.0000 O   0  0  0  0  0  0  0  0  0  0  0  0
    8.2875   -0.2167    0.0000 C   0  0  0  0  0  0  0  0  0  0  0  0
    6.7000   -0.5000    0.0000 C   0  0  0  0  0  0  0  0  0  0  0  0
    7.8292    0.6750    0.0000 O   0  0  0  0  0  0  0  0  0  0  0  0
    6.8292    0.4750    0.0000 C   0  0  0  0  0  0  0  0  0  0  0  0
    1.4417   -5.3417    0.0000 O   0  0  0  0  0  0  0  0  0  0  0  0
    7.5875   -6.8042    0.0000 O   0  0  0  0  0  0  0  0  0  0  0  0
    5.8542   -2.5917    0.0000 C   0  0  0  0  0  0  0  0  0  0  0  0
    6.7375   -1.2792    0.0000 C   0  0  0  0  0  0  0  0  0  0  0  0
    4.0750   -2.6667    0.0000 C   0  0  0  0  0  0  0  0  0  0  0  0
    4.0750   -5.8917    0.0000 C   0  0  0  0  0  0  0  0  0  0  0  0
    2.3167   -5.8917    0.0000 C   0  0  0  0  0  0  0  0  0  0  0  0
    5.7917   -6.8417    0.0000 C   0  0  0  0  0  0  0  0  0  0  0  0
  2  1  1  0  0  0  0
  3  1  1  0  0  0  0
  4  1  1  0  0  0  0
  1  5  1  1  0  0  0
  6  7  1  0  0  0  0
  7  3  1  0  0  0  0
  8  2  1  0  0  0  0
  9 16  1  0  0  0  0
 10  4  1  0  0  0  0
 11 10  1  0  0  0  0
 12  3  1  0  0  0  0
 13  9  1  0  0  0  0
 14  6  1  0  0  0  0
 10 15  1  6  0  0  0
 16 12  1  0  0  0  0
 17  4  1  0  0  0  0
 18 13  1  0  0  0  0
 19 14  2  0  0  0  0
 20 17  1  0  0  0  0
 12 21  1  6  0  0  0
 22 21  1  0  0  0  0
 23  8  2  0  0  0  0
 24 15  2  0  0  0  0
 25 15  1  0  0  0  0
 26 24  1  0  0  0  0
 27 25  2  0  0  0  0
 28 18  2  0  0  0  0
 29 22  2  0  0  0  0
  3 30  1  1  0  0  0
  4 31  1  6  0  0  0
  6 32  1  1  0  0  0
 33 13  1  0  0  0  0
 34 13  1  0  0  0  0
 35 22  1  0  0  0  0
  2  5  1  1  0  0  0
 20  7  1  0  0  0  0
 11  8  1  0  0  0  0
  6  9  1  0  0  0  0
 26 27  1  0  0  0  0
 19 18  1  0  0  0  0
M  END
> <#>
39

> <PLATE>
LAT001

> <ROW>
G

> <COL>
6

> <COORD>
G06

> <LATID>
LAT001G06

> <Supplier>
Microsource

> <Suplier_CAT#>
00100032

> <Name>
Gedunin

> <Concentration_(mM)>
2.5

> <IC50_(µM)>
9.4

> <Yeast_Active?>
-

> <Pubchem_CID>
3458

> <Description>
Antifeedant

> <Source>
Natural Product; ex numerous Meliaceae species

$$$$
