
  -ISIS-  08130814242D

 31 34  0  0  0  0  0  0  0  0999 V2000
    2.2875   -2.9292    0.0000 S   0  0  3  0  0  0  0  0  0  0  0  0
    2.2875   -2.1667    0.0000 N   0  0  3  0  0  0  0  0  0  0  0  0
    1.6375   -1.8000    0.0000 C   0  0  0  0  0  0  0  0  0  0  0  0
    2.9500   -1.8000    0.0000 C   0  0  0  0  0  0  0  0  0  0  0  0
    3.6000   -2.1792    0.0000 C   0  0  0  0  0  0  0  0  0  0  0  0
    1.6375   -3.3000    0.0000 C   0  0  0  0  0  0  0  0  0  0  0  0
    4.9000   -2.1792    0.0000 C   0  0  3  0  0  0  0  0  0  0  0  0
    4.2500   -1.8000    0.0000 N   0  0  0  0  0  0  0  0  0  0  0  0
    0.9875   -2.1667    0.0000 C   0  0  0  0  0  0  0  0  0  0  0  0
    2.5167   -3.6875    0.0000 O   0  0  0  0  0  0  0  0  0  0  0  0
    3.1500   -2.9167    0.0000 O   0  0  0  0  0  0  0  0  0  0  0  0
    5.4375   -1.7000    0.0000 C   0  0  3  0  0  0  0  0  0  0  0  0
    1.6375   -1.0375    0.0000 C   0  0  0  0  0  0  0  0  0  0  0  0
    4.7667   -2.8042    0.0000 C   0  0  0  0  0  0  0  0  0  0  0  0
    5.1375   -1.1292    0.0000 C   0  0  0  0  0  0  0  0  0  0  0  0
    3.5875   -2.9292    0.0000 O   0  0  0  0  0  0  0  0  0  0  0  0
    5.3292   -2.4292    0.0000 C   0  0  3  0  0  0  0  0  0  0  0  0
    6.0875   -1.9042    0.0000 C   0  0  0  0  0  0  0  0  0  0  0  0
    1.6375   -4.0500    0.0000 C   0  0  0  0  0  0  0  0  0  0  0  0
    0.9875   -2.9167    0.0000 C   0  0  0  0  0  0  0  0  0  0  0  0
    0.9875   -0.6542    0.0000 C   0  0  0  0  0  0  0  0  0  0  0  0
    0.3375   -1.8000    0.0000 C   0  0  0  0  0  0  0  0  0  0  0  0
    5.9292   -2.5875    0.0000 C   0  0  0  0  0  0  0  0  0  0  0  0
    0.3375   -1.0375    0.0000 C   0  0  0  0  0  0  0  0  0  0  0  0
    0.3375   -3.3000    0.0000 C   0  0  0  0  0  0  0  0  0  0  0  0
    0.9875   -4.4167    0.0000 C   0  0  0  0  0  0  0  0  0  0  0  0
   -0.3000   -2.1667    0.0000 Cl  0  0  0  0  0  0  0  0  0  0  0  0
    0.3375   -4.0500    0.0000 C   0  0  0  0  0  0  0  0  0  0  0  0
    2.2875   -0.6667    0.0000 O   0  0  0  0  0  0  0  0  0  0  0  0
   -0.3000   -4.4167    0.0000 C   0  0  0  0  0  0  0  0  0  0  0  0
    2.9375   -1.0375    0.0000 C   0  0  0  0  0  0  0  0  0  0  0  0
  2  1  1  0  0  0  0
  3  2  1  0  0  0  0
  4  2  1  0  0  0  0
  5  4  1  0  0  0  0
  6  1  1  0  0  0  0
  7  8  1  0  0  0  0
  8  5  1  0  0  0  0
  9  3  1  0  0  0  0
 10  1  2  0  0  0  0
 11  1  2  0  0  0  0
 12  7  1  0  0  0  0
 13  3  2  0  0  0  0
 14  7  1  0  0  0  0
 15 12  1  0  0  0  0
 16  5  2  0  0  0  0
 17 14  1  0  0  0  0
 18 12  1  0  0  0  0
 19  6  2  0  0  0  0
 20  6  1  0  0  0  0
 21 13  1  0  0  0  0
 22  9  2  0  0  0  0
 23 17  1  0  0  0  0
 24 21  2  0  0  0  0
 25 20  2  0  0  0  0
 26 19  1  0  0  0  0
 27 22  1  0  0  0  0
 28 25  1  0  0  0  0
 29 13  1  0  0  0  0
 30 28  1  0  0  0  0
 31 29  1  0  0  0  0
 28 26  2  0  0  0  0
 22 24  1  0  0  0  0
 15 17  1  0  0  0  0
 23 18  1  0  0  0  0
M  END
> <#>
697

> <PLATE>
LAT009

> <ROW>
A

> <COL>
9

> <COORD>
A09

> <LATID>
LAT009A09

> <Supplier>
Chembridge

> <Suplier_CAT#>
5557590

> <Name>
Novel

> <Sec_Name>
166_F03

> <Concentration_(mM)>
2.5

> <IC50_(µM)>
65

> <Yeast_Active?>
-

> <Pubchem_CID>
2852460

$$$$
