
  -ISIS-  08130814242D

 23 25  0  0  0  0  0  0  0  0999 V2000
    6.7750   -4.2542    0.0000 N   0  0  3  0  0  0  0  0  0  0  0  0
    7.5250   -4.2542    0.0000 N   0  0  0  0  0  0  0  0  0  0  0  0
    5.2667   -4.2667    0.0000 N   0  0  3  0  0  0  0  0  0  0  0  0
    9.4625   -4.8917    0.0000 C   0  0  0  0  0  0  0  0  0  0  0  0
    8.7042   -4.8917    0.0000 C   0  0  0  0  0  0  0  0  0  0  0  0
    8.3292   -4.2500    0.0000 C   0  0  0  0  0  0  0  0  0  0  0  0
    6.4042   -4.9125    0.0000 C   0  0  0  0  0  0  0  0  0  0  0  0
    6.3917   -3.6042    0.0000 C   0  0  0  0  0  0  0  0  0  0  0  0
    9.8417   -5.5417    0.0000 C   0  0  0  0  0  0  0  0  0  0  0  0
    4.5167   -4.2667    0.0000 C   0  0  0  0  0  0  0  0  0  0  0  0
    5.6500   -4.9167    0.0000 C   0  0  0  0  0  0  0  0  0  0  0  0
    5.6417   -3.6125    0.0000 C   0  0  0  0  0  0  0  0  0  0  0  0
    9.8292   -4.2417    0.0000 Cl  0  0  0  0  0  0  0  0  0  0  0  0
   10.5917   -5.5375    0.0000 Cl  0  0  0  0  0  0  0  0  0  0  0  0
    4.1417   -3.6250    0.0000 C   0  0  0  0  0  0  0  0  0  0  0  0
    8.3417   -5.5500    0.0000 C   0  0  0  0  0  0  0  0  0  0  0  0
    8.7167   -6.2000    0.0000 C   0  0  0  0  0  0  0  0  0  0  0  0
    9.4667   -6.1917    0.0000 C   0  0  0  0  0  0  0  0  0  0  0  0
    4.5167   -2.9750    0.0000 C   0  0  0  0  0  0  0  0  0  0  0  0
    3.3917   -3.6292    0.0000 C   0  0  0  0  0  0  0  0  0  0  0  0
    3.0167   -2.9792    0.0000 C   0  0  0  0  0  0  0  0  0  0  0  0
    4.1375   -2.3250    0.0000 C   0  0  0  0  0  0  0  0  0  0  0  0
    3.3875   -2.3292    0.0000 C   0  0  0  0  0  0  0  0  0  0  0  0
  2  1  1  0  0  0  0
  3 12  1  0  0  0  0
  4  5  1  0  0  0  0
  5  6  1  0  0  0  0
  6  2  2  0  0  0  0
  7  1  1  0  0  0  0
  8  1  1  0  0  0  0
  9  4  2  0  0  0  0
 10  3  1  0  0  0  0
 11  7  1  0  0  0  0
 12  8  1  0  0  0  0
 13  4  1  0  0  0  0
 14  9  1  0  0  0  0
 15 10  1  0  0  0  0
 16  5  2  0  0  0  0
 17 16  1  0  0  0  0
 18 17  2  0  0  0  0
 19 15  1  0  0  0  0
 20 15  2  0  0  0  0
 21 20  1  0  0  0  0
 22 19  2  0  0  0  0
 23 21  2  0  0  0  0
 11  3  1  0  0  0  0
 18  9  1  0  0  0  0
 23 22  1  0  0  0  0
M  END
> <#>
2035

> <PLATE>
LAT026

> <ROW>
C

> <COL>
6

> <COORD>
C06

> <LATID>
LAT026C06

> <Supplier>
Chembridge

> <Suplier_CAT#>
5783987

> <Sec_Name>
246_D02

> <Concentration_(mM)>
2.5

> <IC50_(µM)>
100

> <Yeast_Active?>
-

> <Pubchem_CID>
760552

$$$$
