
  -ISIS-  08130814242D

 23 26  0  0  0  0  0  0  0  0999 V2000
    7.4917   -7.2000    0.0000 C   0  0  1  0  0  0  0  0  0  0  0  0
    5.3500   -8.4417    0.0000 C   0  0  1  0  0  0  0  0  0  0  0  0
    5.3500   -9.2667    0.0000 C   0  0  0  0  0  0  0  0  0  0  0  0
    7.4917   -8.0292    0.0000 C   0  0  3  0  0  0  0  0  0  0  0  0
    6.0625   -8.0292    0.0000 C   0  0  3  0  0  0  0  0  0  0  0  0
    6.7792   -8.4417    0.0000 C   0  0  3  0  0  0  0  0  0  0  0  0
    8.2792   -6.9417    0.0000 C   0  0  2  0  0  0  0  0  0  0  0  0
    4.6375   -9.6792    0.0000 C   0  0  0  0  0  0  0  0  0  0  0  0
    6.7750   -6.7875    0.0000 C   0  0  0  0  0  0  0  0  0  0  0  0
    6.0625   -7.2000    0.0000 C   0  0  0  0  0  0  0  0  0  0  0  0
    8.2792   -8.2792    0.0000 C   0  0  0  0  0  0  0  0  0  0  0  0
    4.6375   -8.0292    0.0000 C   0  0  0  0  0  0  0  0  0  0  0  0
    8.7625   -7.6125    0.0000 C   0  0  0  0  0  0  0  0  0  0  0  0
    6.7792   -9.2667    0.0000 C   0  0  0  0  0  0  0  0  0  0  0  0
    8.5292   -6.1542    0.0000 C   0  0  0  0  0  0  0  0  0  0  0  0
    6.0625   -9.6792    0.0000 C   0  0  0  0  0  0  0  0  0  0  0  0
    3.9167   -9.2667    0.0000 C   0  0  0  0  0  0  0  0  0  0  0  0
    9.3375   -5.9792    0.0000 O   0  0  0  0  0  0  0  0  0  0  0  0
    3.2000   -9.6875    0.0000 O   0  0  0  0  0  0  0  0  0  0  0  0
    3.9167   -8.4417    0.0000 C   0  0  0  0  0  0  0  0  0  0  0  0
    7.4917   -6.3750    0.0000 C   0  0  0  0  0  0  0  0  0  0  0  0
    5.3500   -7.6125    0.0000 C   0  0  0  0  0  0  0  0  0  0  0  0
    7.9792   -5.5417    0.0000 C   0  0  0  0  0  0  0  0  0  0  0  0
  2  5  1  0  0  0  0
  3  2  1  0  0  0  0
  4  1  1  0  0  0  0
  5 10  1  0  0  0  0
  6  4  1  0  0  0  0
  7  1  1  0  0  0  0
  8  3  2  0  0  0  0
  9  1  1  0  0  0  0
 10  9  1  0  0  0  0
 11  4  1  0  0  0  0
 12  2  1  0  0  0  0
 13  7  1  0  0  0  0
 14  6  1  0  0  0  0
  7 15  1  1  0  0  0
 16 14  1  0  0  0  0
 17 20  1  0  0  0  0
 18 15  2  0  0  0  0
 19 17  2  0  0  0  0
 20 12  1  0  0  0  0
  1 21  1  1  0  0  0
  2 22  1  1  0  0  0
 23 15  1  0  0  0  0
 11 13  1  0  0  0  0
  6  5  1  0  0  0  0
  3 16  1  0  0  0  0
  8 17  1  0  0  0  0
M  END
> <#>
115

> <PLATE>
LAT002

> <ROW>
C

> <COL>
6

> <COORD>
C06

> <LATID>
LAT002C06

> <Supplier>
Microsource

> <Suplier_CAT#>
01500508

> <Name>
Progesterone

> <Concentration_(mM)>
2.5

> <IC50_(µM)>
25

> <Yeast_Active?>
-

> <Pubchem_CID>
4920

> <Description>
Progestogen

$$$$
