
  -ISIS-  08130814242D

 36 37  0  0  0  0  0  0  0  0999 V2000
   -1.3958    0.6458    0.0000 C   0  0  0  0  0  0  0  0  0  0  0  0
   -1.3958   -0.2667    0.0000 C   0  0  0  0  0  0  0  0  0  0  0  0
    1.7875    2.4958    0.0000 S   0  0  3  0  0  0  0  0  0  0  0  0
   -2.1958    1.1000    0.0000 C   0  0  0  0  0  0  0  0  0  0  0  0
   -2.1958   -0.7500    0.0000 C   0  0  0  0  0  0  0  0  0  0  0  0
   -0.5958    1.1000    0.0000 C   0  0  0  0  0  0  0  0  0  0  0  0
    0.2042    2.4958    0.0000 C   0  0  0  0  0  0  0  0  0  0  0  0
    1.0000    2.0333    0.0000 C   0  0  3  0  0  0  0  0  0  0  0  0
   -2.9833   -0.2667    0.0000 C   0  0  0  0  0  0  0  0  0  0  0  0
   -2.9833    0.6458    0.0000 C   0  0  0  0  0  0  0  0  0  0  0  0
   -0.5958    2.0333    0.0000 N   0  0  0  0  0  0  0  0  0  0  0  0
   -0.5958   -0.7500    0.0000 C   0  0  0  0  0  0  0  0  0  0  0  0
    2.2500    1.7000    0.0000 O   0  0  0  0  0  0  0  0  0  0  0  0
    1.3292    3.2708    0.0000 O   0  0  0  0  0  0  0  0  0  0  0  0
   -2.1958   -1.6542    0.0000 O   0  0  0  0  0  0  0  0  0  0  0  0
   -2.1958    2.0333    0.0000 O   0  0  0  0  0  0  0  0  0  0  0  0
    0.2042    3.4000    0.0000 O   0  0  0  0  0  0  0  0  0  0  0  0
    0.2042    0.6458    0.0000 C   0  0  0  0  0  0  0  0  0  0  0  0
    2.5792    2.9458    0.0000 O   0  0  0  0  0  0  0  0  0  0  0  0
    0.2042   -0.2667    0.0000 C   0  0  0  0  0  0  0  0  0  0  0  0
   -0.5958   -1.6542    0.0000 O   0  0  0  0  0  0  0  0  0  0  0  0
   -3.7833   -0.7167    0.0000 C   0  0  0  0  0  0  0  0  0  0  0  0
   -3.7833    1.1000    0.0000 C   0  0  0  0  0  0  0  0  0  0  0  0
    1.0000    1.1208    0.0000 C   0  0  0  0  0  0  0  0  0  0  0  0
   -4.5833   -0.2375    0.0000 C   0  0  0  0  0  0  0  0  0  0  0  0
   -4.5833    0.6208    0.0000 C   0  0  0  0  0  0  0  0  0  0  0  0
    4.6792    1.1333    0.0000 C   0  0  0  0  0  0  0  0  0  0  0  0
    4.6792   -0.6667    0.0000 C   0  0  0  0  0  0  0  0  0  0  0  0
    4.6792    2.0333    0.0000 N   0  0  0  0  0  0  0  0  0  0  0  0
    3.9000    0.6958    0.0000 C   0  0  0  0  0  0  0  0  0  0  0  0
    5.4542    0.6958    0.0000 C   0  0  0  0  0  0  0  0  0  0  0  0
    3.9000   -0.2292    0.0000 C   0  0  0  0  0  0  0  0  0  0  0  0
    5.4542   -0.2292    0.0000 C   0  0  0  0  0  0  0  0  0  0  0  0
    4.6792   -1.5667    0.0000 O   0  0  0  0  0  0  0  0  0  0  0  0
    5.4375   -2.0292    0.0000 C   0  0  0  0  0  0  0  0  0  0  0  0
    1.8000   -1.5792    0.0000 O   0  0  0  0  0  0  0  0  0  0  0  0
  9 10  2  0  0  0  0
 10  4  1  0  0  0  0
 11  6  1  0  0  0  0
 12  2  1  0  0  0  0
 13  3  2  0  0  0  0
 14  3  2  0  0  0  0
 15  5  2  0  0  0  0
 16  4  2  0  0  0  0
 17  7  2  0  0  0  0
 18  6  2  0  0  0  0
 19  3  1  0  0  0  0
 20 18  1  0  0  0  0
 21 12  1  0  0  0  0
 22  9  1  0  0  0  0
 23 10  1  0  0  0  0
 24  8  1  0  0  0  0
 25 26  1  0  0  0  0
 26 23  2  0  0  0  0
 12 20  2  0  0  0  0
  9  5  1  0  0  0  0
 22 25  2  0  0  0  0
  2  1  2  0  0  0  0
  3  8  1  0  0  0  0
  4  1  1  0  0  0  0
  5  2  1  0  0  0  0
  6  1  1  0  0  0  0
  7 11  1  0  0  0  0
 28 33  1  0  0  0  0
 29 27  1  0  0  0  0
 30 27  2  0  0  0  0
 31 27  1  0  0  0  0
 32 30  1  0  0  0  0
 33 31  2  0  0  0  0
 34 28  1  0  0  0  0
 35 34  1  0  0  0  0
 28 32  2  0  0  0  0
  8  7  1  0  0  0  0
M  END
> <#>
1112

> <PLATE>
LAT014

> <ROW>
H

> <COL>
10

> <COORD>
H10

> <LATID>
LAT014H10

> <Supplier>
Chembridge

> <Suplier_CAT#>
5255734

> <Name>
Novel

> <Concentration_(mM)>
2.5

> <IC50_(µM)>
>100

> <Yeast_Active?>
-

> <Pubchem_CID>
NULL

$$$$
