
  -ISIS-  08130814242D

 22 24  0  0  0  0  0  0  0  0999 V2000
   -0.3125    0.3208    0.0000 C   0  0  0  0  0  0  0  0  0  0  0  0
   -0.5708    0.6625    0.0000 N   0  0  0  0  0  0  0  0  0  0  0  0
   -0.5708   -0.0542    0.0000 N   0  0  3  0  0  0  0  0  0  0  0  0
   -0.9958    0.0833    0.0000 C   0  0  0  0  0  0  0  0  0  0  0  0
   -0.9958    0.5458    0.0000 C   0  0  0  0  0  0  0  0  0  0  0  0
    0.1500    0.3208    0.0000 C   0  0  3  0  0  0  0  0  0  0  0  0
    0.3667   -0.0542    0.0000 C   0  0  0  0  0  0  0  0  0  0  0  0
    0.1500   -0.4375    0.0000 C   0  0  0  0  0  0  0  0  0  0  0  0
    0.8042   -0.0542    0.0000 C   0  0  0  0  0  0  0  0  0  0  0  0
   -0.4125   -0.4792    0.0000 C   0  0  0  0  0  0  0  0  0  0  0  0
    0.3667    0.7000    0.0000 O   0  0  0  0  0  0  0  0  0  0  0  0
    0.8042   -0.8167    0.0000 C   0  0  0  0  0  0  0  0  0  0  0  0
    1.0292   -0.4375    0.0000 C   0  0  0  0  0  0  0  0  0  0  0  0
    0.3667   -0.8167    0.0000 C   0  0  0  0  0  0  0  0  0  0  0  0
   -1.3708   -0.1375    0.0000 C   0  0  0  0  0  0  0  0  0  0  0  0
   -1.3708    0.7625    0.0000 C   0  0  0  0  0  0  0  0  0  0  0  0
    1.0292   -1.2167    0.0000 O   0  0  0  0  0  0  0  0  0  0  0  0
    1.4875   -1.2375    0.0000 C   0  0  0  0  0  0  0  0  0  0  0  0
    0.0500   -0.5542    0.0000 C   0  0  0  0  0  0  0  0  0  0  0  0
   -1.7500    0.0833    0.0000 C   0  0  0  0  0  0  0  0  0  0  0  0
   -1.7500    0.5458    0.0000 C   0  0  0  0  0  0  0  0  0  0  0  0
    0.2042   -0.9792    0.0000 C   0  0  0  0  0  0  0  0  0  0  0  0
  2  1  2  0  0  0  0
  3  1  1  0  0  0  0
  4  3  1  0  0  0  0
  5  2  1  0  0  0  0
  6  1  1  0  0  0  0
  7  6  1  0  0  0  0
  8  7  2  0  0  0  0
  9  7  1  0  0  0  0
 10  3  1  0  0  0  0
 11  6  1  0  0  0  0
 12 13  1  0  0  0  0
 13  9  2  0  0  0  0
 14  8  1  0  0  0  0
 15  4  1  0  0  0  0
 16  5  1  0  0  0  0
 17 12  1  0  0  0  0
 18 17  1  0  0  0  0
 19 10  1  0  0  0  0
 20 15  2  0  0  0  0
 21 16  2  0  0  0  0
 22 19  1  0  0  0  0
  5  4  2  0  0  0  0
 14 12  2  0  0  0  0
 21 20  1  0  0  0  0
M  END
> <#>
1823

> <PLATE>
LAT023

> <ROW>
G

> <COL>
9

> <COORD>
G09

> <LATID>
LAT023G09

> <Supplier>
Chembridge

> <Suplier_CAT#>
5652903

> <Name>
Ohbenzimole

> <Sec_Name>
202_E02

> <Concentration_(mM)>
2.5

> <IC50_(µM)>
4

> <Yeast_Active?>
-

> <Pubchem_CID>
626543

$$$$
