
  -ISIS-  08130814242D

 32 36  0  0  0  0  0  0  0  0999 V2000
    0.3542   -1.5875    0.0000 N   0  0  3  0  0  0  0  0  0  0  0  0
   -1.1000   -1.5667    0.0000 C   0  0  0  0  0  0  0  0  0  0  0  0
   -0.3833   -2.0000    0.0000 C   0  0  0  0  0  0  0  0  0  0  0  0
   -1.1000   -0.7042    0.0000 C   0  0  0  0  0  0  0  0  0  0  0  0
    0.3542   -0.7042    0.0000 C   0  0  0  0  0  0  0  0  0  0  0  0
   -0.3833   -0.3000    0.0000 N   0  0  0  0  0  0  0  0  0  0  0  0
   -1.8458   -2.0000    0.0000 C   0  0  3  0  0  0  0  0  0  0  0  0
    1.1000   -2.0000    0.0000 C   0  0  3  0  0  0  0  0  0  0  0  0
   -1.8458   -0.3000    0.0000 C   0  0  0  0  0  0  0  0  0  0  0  0
   -2.6125   -0.7375    0.0000 C   0  0  0  0  0  0  0  0  0  0  0  0
   -2.5833   -1.5875    0.0000 C   0  0  0  0  0  0  0  0  0  0  0  0
    1.8375   -1.5875    0.0000 C   0  0  0  0  0  0  0  0  0  0  0  0
   -0.3833   -2.8542    0.0000 O   0  0  0  0  0  0  0  0  0  0  0  0
    2.5875   -2.0000    0.0000 C   0  0  3  0  0  0  0  0  0  0  0  0
    1.1000   -0.2500    0.0000 N   0  0  0  0  0  0  0  0  0  0  0  0
    2.5875   -2.8792    0.0000 O   0  0  0  0  0  0  0  0  0  0  0  0
    1.1000   -2.8792    0.0000 C   0  0  0  0  0  0  0  0  0  0  0  0
    1.8375   -3.3000    0.0000 C   0  0  0  0  0  0  0  0  0  0  0  0
   -1.3125   -2.6875    0.0000 C   0  0  0  0  0  0  0  0  0  0  0  0
   -2.6958   -2.1042    0.0000 C   0  0  0  0  0  0  0  0  0  0  0  0
   -1.8125    0.5500    0.0000 C   0  0  0  0  0  0  0  0  0  0  0  0
   -3.3208   -0.3292    0.0000 C   0  0  0  0  0  0  0  0  0  0  0  0
    1.7875    1.8708    0.0000 O   0  0  0  0  0  0  0  0  0  0  0  0
    3.3000   -1.5667    0.0000 C   0  0  0  0  0  0  0  0  0  0  0  0
    3.1542   -1.4000    0.0000 C   0  0  0  0  0  0  0  0  0  0  0  0
    1.0792    0.6000    0.0000 C   0  0  0  0  0  0  0  0  0  0  0  0
    1.8167    1.0458    0.0000 C   0  0  0  0  0  0  0  0  0  0  0  0
   -3.0208   -2.9042    0.0000 C   0  0  0  0  0  0  0  0  0  0  0  0
   -1.6458   -3.4542    0.0000 C   0  0  0  0  0  0  0  0  0  0  0  0
   -2.5500    0.9625    0.0000 C   0  0  0  0  0  0  0  0  0  0  0  0
   -3.3208    0.5208    0.0000 C   0  0  0  0  0  0  0  0  0  0  0  0
   -2.5208   -3.5667    0.0000 C   0  0  0  0  0  0  0  0  0  0  0  0
  2  3  1  0  0  0  0
  3  1  1  0  0  0  0
  4  6  1  0  0  0  0
  5  1  1  0  0  0  0
  6  5  2  0  0  0  0
  7  2  1  0  0  0  0
  8  1  1  0  0  0  0
  9  4  1  0  0  0  0
 10  9  2  0  0  0  0
 11  7  1  0  0  0  0
 12  8  1  0  0  0  0
 13  3  2  0  0  0  0
 14 12  1  0  0  0  0
 15  5  1  0  0  0  0
 16 18  1  0  0  0  0
 17  8  1  0  0  0  0
 18 17  1  0  0  0  0
 19  7  1  0  0  0  0
 20  7  1  0  0  0  0
 21  9  1  0  0  0  0
 22 10  1  0  0  0  0
 23 27  1  0  0  0  0
 24 14  1  0  0  0  0
 25 14  1  0  0  0  0
 26 15  1  0  0  0  0
 27 26  1  0  0  0  0
 28 20  1  0  0  0  0
 29 19  1  0  0  0  0
 30 21  2  0  0  0  0
 31 30  1  0  0  0  0
 32 28  1  0  0  0  0
  2  4  2  0  0  0  0
 14 16  1  0  0  0  0
 10 11  1  0  0  0  0
 32 29  1  0  0  0  0
 22 31  2  0  0  0  0
M  END
> <#>
1033

> <PLATE>
LAT013

> <ROW>
A

> <COL>
11

> <COORD>
A11

> <LATID>
LAT013A11

> <Supplier>
Chembridge

> <Suplier_CAT#>
5705153

> <Name>
Novel

> <Sec_Name>
222_C09

> <Concentration_(mM)>
2.5

> <IC50_(µM)>
>100

> <Yeast_Active?>
-

> <Pubchem_CID>
1724678

$$$$
