
  -ISIS-  08130814242D

 25 26  0  0  0  0  0  0  0  0999 V2000
    6.3541   -3.2958    0.0000 C   0  0  0  0  0  0  0  0  0  0  0  0
    6.3541   -4.5458    0.0000 C   0  0  0  0  0  0  0  0  0  0  0  0
    5.2716   -5.1708    0.0000 C   0  0  0  0  0  0  0  0  0  0  0  0
    5.2716   -6.4208    0.0000 C   0  0  0  0  0  0  0  0  0  0  0  0
    4.1890   -7.0458    0.0000 O   0  0  0  0  0  0  0  0  0  0  0  0
    3.1065   -6.4208    0.0000 C   0  0  0  0  0  0  0  0  0  0  0  0
    2.0240   -7.0458    0.0000 N   0  0  0  0  0  0  0  0  0  0  0  0
    0.9414   -6.4208    0.0000 C   0  0  0  0  0  0  0  0  0  0  0  0
   -0.1411   -7.0458    0.0000 C   0  0  0  0  0  0  0  0  0  0  0  0
   -1.2236   -6.4208    0.0000 C   0  0  0  0  0  0  0  0  0  0  0  0
   -1.2236   -5.1708    0.0000 C   0  0  0  0  0  0  0  0  0  0  0  0
   -0.1411   -4.5458    0.0000 C   0  0  0  0  0  0  0  0  0  0  0  0
    0.9414   -5.1708    0.0000 C   0  0  0  0  0  0  0  0  0  0  0  0
    2.0240   -4.5458    0.0000 C   0  0  0  0  0  0  0  0  0  0  0  0
    3.1065   -5.1708    0.0000 C   0  0  0  0  0  0  0  0  0  0  0  0
    2.0240   -3.2958    0.0000 C   0  0  0  0  0  0  0  0  0  0  0  0
    3.1065   -2.6708    0.0000 O   0  0  0  0  0  0  0  0  0  0  0  0
    0.9414   -2.6708    0.0000 N   0  0  0  0  0  0  0  0  0  0  0  0
    0.9414   -1.4208    0.0000 C   0  0  0  0  0  0  0  0  0  0  0  0
   -0.1411   -0.7958    0.0000 C   0  0  0  0  0  0  0  0  0  0  0  0
   -0.1411    0.4542    0.0000 N   0  0  3  0  0  0  0  0  0  0  0  0
   -1.2236    1.0792    0.0000 C   0  0  0  0  0  0  0  0  0  0  0  0
   -2.3062    0.4542    0.0000 C   0  0  0  0  0  0  0  0  0  0  0  0
    0.9414    1.0792    0.0000 C   0  0  0  0  0  0  0  0  0  0  0  0
    0.9414    2.3292    0.0000 C   0  0  0  0  0  0  0  0  0  0  0  0
  1  2  1  0  0  0  0
  2  3  1  0  0  0  0
  3  4  1  0  0  0  0
  4  5  1  0  0  0  0
  5  6  1  0  0  0  0
  6  7  2  0  0  0  0
  7  8  1  0  0  0  0
  8  9  2  0  0  0  0
  9 10  1  0  0  0  0
 10 11  2  0  0  0  0
 11 12  1  0  0  0  0
 12 13  2  0  0  0  0
  8 13  1  0  0  0  0
 13 14  1  0  0  0  0
 14 15  2  0  0  0  0
  6 15  1  0  0  0  0
 14 16  1  0  0  0  0
 16 17  2  0  0  0  0
 16 18  1  0  0  0  0
 18 19  1  0  0  0  0
 19 20  1  0  0  0  0
 20 21  1  0  0  0  0
 21 22  1  0  0  0  0
 22 23  1  0  0  0  0
 21 24  1  0  0  0  0
 24 25  1  0  0  0  0
M  END
> <#>
308

> <PLATE>
LAT004

> <ROW>
D

> <COL>
10

> <COORD>
D10

> <LATID>
LAT004D10

> <Supplier>
ICN

> <Suplier_CAT#>
150857

> <Name>
Dibucaine

> <Concentration_(mM)>
2.5

> <IC50_(µM)>
inactive

> <Yeast_Active?>
-

> <Pubchem_CID>
3025

$$$$
