
  -ISIS-  08130814242D

 32 35  0  0  0  0  0  0  0  0999 V2000
    3.7667    1.6500    0.0000 N   0  0  3  0  0  0  0  0  0  0  0  0
    4.5167    1.5708    0.0000 C   0  0  0  0  0  0  0  0  0  0  0  0
    4.8250    2.2583    0.0000 C   0  0  0  0  0  0  0  0  0  0  0  0
    3.6167    2.3833    0.0000 C   0  0  0  0  0  0  0  0  0  0  0  0
    4.2667    2.7583    0.0000 C   0  0  0  0  0  0  0  0  0  0  0  0
    3.2667    1.0958    0.0000 C   0  0  0  0  0  0  0  0  0  0  0  0
    5.5542    2.4125    0.0000 C   0  0  0  0  0  0  0  0  0  0  0  0
    2.9667    2.7583    0.0000 C   0  0  0  0  0  0  0  0  0  0  0  0
    6.0542    1.8583    0.0000 C   0  0  0  0  0  0  0  0  0  0  0  0
    2.5375    1.2500    0.0000 C   0  0  0  0  0  0  0  0  0  0  0  0
    4.2667    3.5083    0.0000 C   0  0  0  0  0  0  0  0  0  0  0  0
    3.5042    0.3833    0.0000 O   0  0  0  0  0  0  0  0  0  0  0  0
    6.7917    2.0208    0.0000 N   0  0  0  0  0  0  0  0  0  0  0  0
    8.5292    1.0583    0.0000 N   0  0  0  0  0  0  0  0  0  0  0  0
    5.8292    1.1458    0.0000 O   0  0  0  0  0  0  0  0  0  0  0  0
    2.3042    1.9625    0.0000 C   0  0  0  0  0  0  0  0  0  0  0  0
    2.0292    0.6958    0.0000 C   0  0  0  0  0  0  0  0  0  0  0  0
    4.8917    0.9250    0.0000 C   0  0  0  0  0  0  0  0  0  0  0  0
    3.6167    3.8833    0.0000 C   0  0  0  0  0  0  0  0  0  0  0  0
    8.0292    1.6125    0.0000 C   0  0  0  0  0  0  0  0  0  0  0  0
    2.9667    3.5083    0.0000 C   0  0  0  0  0  0  0  0  0  0  0  0
    7.2917    1.4583    0.0000 C   0  0  0  0  0  0  0  0  0  0  0  0
    1.0667    1.5625    0.0000 C   0  0  0  0  0  0  0  0  0  0  0  0
    1.5667    2.1208    0.0000 C   0  0  0  0  0  0  0  0  0  0  0  0
    1.3000    0.8500    0.0000 C   0  0  0  0  0  0  0  0  0  0  0  0
    0.3375    1.7208    0.0000 Cl  0  0  0  0  0  0  0  0  0  0  0  0
    3.6167    4.6292    0.0000 O   0  0  0  0  0  0  0  0  0  0  0  0
    9.2625    1.2083    0.0000 C   0  0  0  0  0  0  0  0  0  0  0  0
    8.2542    2.3333    0.0000 C   0  0  0  0  0  0  0  0  0  0  0  0
    2.9667    5.0042    0.0000 C   0  0  0  0  0  0  0  0  0  0  0  0
    9.4917    1.9208    0.0000 C   0  0  0  0  0  0  0  0  0  0  0  0
    8.9917    2.4833    0.0000 C   0  0  0  0  0  0  0  0  0  0  0  0
  2  1  1  0  0  0  0
  3  2  2  0  0  0  0
  4  1  1  0  0  0  0
  5  4  2  0  0  0  0
  6  1  1  0  0  0  0
  7  3  1  0  0  0  0
  8  4  1  0  0  0  0
  9  7  1  0  0  0  0
 10  6  1  0  0  0  0
 11  5  1  0  0  0  0
 12  6  2  0  0  0  0
 13  9  1  0  0  0  0
 14 20  1  0  0  0  0
 15  9  2  0  0  0  0
 16 10  2  0  0  0  0
 17 10  1  0  0  0  0
 18  2  1  0  0  0  0
 19 21  1  0  0  0  0
 20 22  1  0  0  0  0
 21  8  2  0  0  0  0
 22 13  1  0  0  0  0
 23 25  1  0  0  0  0
 24 16  1  0  0  0  0
 25 17  2  0  0  0  0
 26 23  1  0  0  0  0
 27 19  1  0  0  0  0
 28 14  2  0  0  0  0
 29 20  2  0  0  0  0
 30 27  1  0  0  0  0
 31 32  2  0  0  0  0
 32 29  1  0  0  0  0
  3  5  1  0  0  0  0
 24 23  2  0  0  0  0
 11 19  2  0  0  0  0
 31 28  1  0  0  0  0
M  END
> <#>
1575

> <PLATE>
LAT020

> <ROW>
G

> <COL>
8

> <COORD>
G08

> <LATID>
LAT020G08

> <Supplier>
Chembridge

> <Suplier_CAT#>
7958538

> <Name>
Novel

> <Concentration_(mM)>
2.5

> <IC50_(µM)>
21

> <Yeast_Active?>
-

> <Pubchem_CID>
2228983

> <Comment>
What is up with this?

$$$$
