
  -ISIS-  08130814242D

 29 32  0  0  0  0  0  0  0  0999 V2000
    0.4792   -0.9875    0.0000 C   0  0  0  0  0  0  0  0  0  0  0  0
   -0.0833   -0.8042    0.0000 C   0  0  0  0  0  0  0  0  0  0  0  0
    0.4792   -1.5500    0.0000 N   0  0  3  0  0  0  0  0  0  0  0  0
   -0.0833   -1.7292    0.0000 N   0  0  0  0  0  0  0  0  0  0  0  0
    0.9792   -0.6875    0.0000 N   0  0  0  0  0  0  0  0  0  0  0  0
   -0.3000   -0.2500    0.0000 C   0  0  0  0  0  0  0  0  0  0  0  0
   -0.4000   -1.2875    0.0000 C   0  0  0  0  0  0  0  0  0  0  0  0
    1.4792   -0.9875    0.0000 C   0  0  0  0  0  0  0  0  0  0  0  0
   -0.8708   -0.1542    0.0000 N   0  0  0  0  0  0  0  0  0  0  0  0
    1.9792   -0.7042    0.0000 C   0  0  0  0  0  0  0  0  0  0  0  0
    2.5000   -0.9375    0.0000 S   0  0  0  0  0  0  0  0  0  0  0  0
   -1.2333   -0.6000    0.0000 C   0  0  0  0  0  0  0  0  0  0  0  0
    0.9792   -1.8500    0.0000 C   0  0  0  0  0  0  0  0  0  0  0  0
    0.0792    0.2125    0.0000 O   0  0  0  0  0  0  0  0  0  0  0  0
    1.4792   -1.5667    0.0000 O   0  0  0  0  0  0  0  0  0  0  0  0
    2.0375   -0.1500    0.0000 C   0  0  0  0  0  0  0  0  0  0  0  0
    2.9000   -0.5292    0.0000 C   0  0  0  0  0  0  0  0  0  0  0  0
   -1.8125   -0.5292    0.0000 C   0  0  0  0  0  0  0  0  0  0  0  0
    2.6167   -0.0292    0.0000 C   0  0  0  0  0  0  0  0  0  0  0  0
   -2.0500   -0.0167    0.0000 Cl  0  0  0  0  0  0  0  0  0  0  0  0
   -1.0333   -1.1167    0.0000 C   0  0  0  0  0  0  0  0  0  0  0  0
    0.6792   -2.3500    0.0000 C   0  0  0  0  0  0  0  0  0  0  0  0
    1.5375   -1.8500    0.0000 C   0  0  0  0  0  0  0  0  0  0  0  0
   -2.1500   -0.9667    0.0000 C   0  0  0  0  0  0  0  0  0  0  0  0
   -1.3625   -1.5792    0.0000 C   0  0  0  0  0  0  0  0  0  0  0  0
    1.8375   -2.3500    0.0000 C   0  0  0  0  0  0  0  0  0  0  0  0
    0.9792   -2.8500    0.0000 C   0  0  0  0  0  0  0  0  0  0  0  0
   -1.9333   -1.5167    0.0000 C   0  0  0  0  0  0  0  0  0  0  0  0
    1.5375   -2.8500    0.0000 C   0  0  0  0  0  0  0  0  0  0  0  0
  2  1  2  0  0  0  0
  3  1  1  0  0  0  0
  4  3  1  0  0  0  0
  5  1  1  0  0  0  0
  6  2  1  0  0  0  0
  7  2  1  0  0  0  0
  8  5  1  0  0  0  0
  9  6  1  0  0  0  0
 10  8  1  0  0  0  0
 11 10  1  0  0  0  0
 12  9  1  0  0  0  0
 13  3  1  0  0  0  0
 14  6  2  0  0  0  0
 15  8  2  0  0  0  0
 16 10  2  0  0  0  0
 17 11  1  0  0  0  0
 18 12  2  0  0  0  0
 19 16  1  0  0  0  0
 20 18  1  0  0  0  0
 21 12  1  0  0  0  0
 22 13  2  0  0  0  0
 23 13  1  0  0  0  0
 24 18  1  0  0  0  0
 25 21  2  0  0  0  0
 26 23  2  0  0  0  0
 27 22  1  0  0  0  0
 28 25  1  0  0  0  0
 29 26  1  0  0  0  0
  4  7  2  0  0  0  0
 17 19  2  0  0  0  0
 27 29  2  0  0  0  0
 28 24  2  0  0  0  0
M  END
> <#>
1798

> <PLATE>
LAT023

> <ROW>
F

> <COL>
6

> <COORD>
F06

> <LATID>
LAT023F06

> <Supplier>
Chembridge

> <Suplier_CAT#>
5576871

> <Name>
Novel

> <Sec_Name>
178_D11

> <Concentration_(mM)>
2.5

> <IC50_(µM)>
8

> <Yeast_Active?>
-

> <Pubchem_CID>
1067720

$$$$
