
  -ISIS-  08130814242D

 24 26  0  0  0  0  0  0  0  0999 V2000
   -0.1208   -0.3042    0.0000 C   0  0  0  0  0  0  0  0  0  0  0  0
    1.3042    0.5333    0.0000 N   0  0  0  0  0  0  0  0  0  0  0  0
    2.7167   -0.3292    0.0000 C   0  0  0  0  0  0  0  0  0  0  0  0
    0.3500    0.5333    0.0000 N   0  0  0  0  0  0  0  0  0  0  0  0
   -3.8708    1.3208    0.0000 C   0  0  0  0  0  0  0  0  0  0  0  0
    0.3500   -1.1167    0.0000 O   0  0  0  0  0  0  0  0  0  0  0  0
    3.1875    0.4958    0.0000 C   0  0  0  0  0  0  0  0  0  0  0  0
   -2.9458    1.3208    0.0000 C   0  0  0  0  0  0  0  0  0  0  0  0
    1.8000   -0.3292    0.0000 C   0  0  0  0  0  0  0  0  0  0  0  0
   -4.3500    0.5125    0.0000 C   0  0  0  0  0  0  0  0  0  0  0  0
   -1.0833   -0.3042    0.0000 C   0  0  0  0  0  0  0  0  0  0  0  0
   -3.8833   -0.3000    0.0000 C   0  0  0  0  0  0  0  0  0  0  0  0
   -2.4708    0.5125    0.0000 C   0  0  0  0  0  0  0  0  0  0  0  0
   -1.5458    0.5125    0.0000 O   0  0  0  0  0  0  0  0  0  0  0  0
    2.7292    1.3125    0.0000 Br  0  0  0  0  0  0  0  0  0  0  0  0
   -2.9500   -0.3000    0.0000 C   0  0  0  0  0  0  0  0  0  0  0  0
    3.1875   -1.1500    0.0000 C   0  0  0  0  0  0  0  0  0  0  0  0
   -4.3333    2.1625    0.0000 C   0  0  0  0  0  0  0  0  0  0  0  0
    4.1167    0.4958    0.0000 C   0  0  0  0  0  0  0  0  0  0  0  0
   -5.2833    0.5125    0.0000 C   0  0  0  0  0  0  0  0  0  0  0  0
    4.1500   -1.1500    0.0000 C   0  0  0  0  0  0  0  0  0  0  0  0
   -5.2708    2.1500    0.0000 C   0  0  0  0  0  0  0  0  0  0  0  0
    4.6167   -0.3292    0.0000 C   0  0  0  0  0  0  0  0  0  0  0  0
   -5.7708    1.3625    0.0000 C   0  0  0  0  0  0  0  0  0  0  0  0
  2  4  1  0  0  0  0
  3  9  1  0  0  0  0
  4  1  1  0  0  0  0
  5  8  2  0  0  0  0
  6  1  2  0  0  0  0
  7  3  1  0  0  0  0
  8 13  1  0  0  0  0
  9  2  2  0  0  0  0
 10 12  2  0  0  0  0
 11  1  1  0  0  0  0
 12 16  1  0  0  0  0
 13 14  1  0  0  0  0
 14 11  1  0  0  0  0
 15  7  1  0  0  0  0
 16 13  2  0  0  0  0
 17  3  2  0  0  0  0
 18  5  1  0  0  0  0
 19  7  2  0  0  0  0
 20 10  1  0  0  0  0
 21 17  1  0  0  0  0
 22 18  2  0  0  0  0
 23 21  2  0  0  0  0
 24 20  2  0  0  0  0
  5 10  1  0  0  0  0
 23 19  1  0  0  0  0
 24 22  1  0  0  0  0
M  END
> <#>
648

> <PLATE>
LAT009

> <ROW>
H

> <COL>
2

> <COORD>
H02

> <LATID>
LAT009H02

> <Supplier>
Chembridge

> <Suplier_CAT#>
5524634

> <Name>
Novel

> <Sec_Name>
146_H10

> <Concentration_(mM)>
2.5

> <IC50_(µM)>
3

> <Yeast_Active?>
-

> <Pubchem_CID>
1367369

$$$$
