
  -ISIS-  08130814242D

 29 31  0  0  0  0  0  0  0  0999 V2000
    4.3167    0.0333    0.0000 N   0  0  3  0  0  0  0  0  0  0  0  0
    3.9042   -0.6792    0.0000 C   0  0  0  0  0  0  0  0  0  0  0  0
    3.0042    0.3125    0.0000 C   0  0  0  0  0  0  0  0  0  0  0  0
    3.7667    0.6458    0.0000 C   0  0  0  0  0  0  0  0  0  0  0  0
    3.0917   -0.5042    0.0000 C   0  0  0  0  0  0  0  0  0  0  0  0
    0.1542    0.3125    0.0000 C   0  0  0  0  0  0  0  0  0  0  0  0
    5.1417    0.1125    0.0000 C   0  0  0  0  0  0  0  0  0  0  0  0
   -0.5625    0.7250    0.0000 C   0  0  0  0  0  0  0  0  0  0  0  0
    5.4750    0.8625    0.0000 C   0  0  0  0  0  0  0  0  0  0  0  0
   -1.2750    0.3125    0.0000 N   0  0  0  0  0  0  0  0  0  0  0  0
    1.5792    0.3125    0.0000 N   0  0  0  0  0  0  0  0  0  0  0  0
    0.8667    0.7250    0.0000 N   0  0  0  0  0  0  0  0  0  0  0  0
    2.2917    0.7250    0.0000 C   0  0  0  0  0  0  0  0  0  0  0  0
    0.1542   -0.5042    0.0000 O   0  0  0  0  0  0  0  0  0  0  0  0
   -3.4208    0.7333    0.0000 N   0  0  0  0  0  0  0  0  0  0  0  0
   -0.5625    1.5500    0.0000 O   0  0  0  0  0  0  0  0  0  0  0  0
    6.2917    0.9500    0.0000 C   0  0  0  0  0  0  0  0  0  0  0  0
   -1.9958    0.7333    0.0000 C   0  0  0  0  0  0  0  0  0  0  0  0
   -2.7083    0.3208    0.0000 C   0  0  0  0  0  0  0  0  0  0  0  0
    4.2375   -1.4417    0.0000 C   0  0  0  0  0  0  0  0  0  0  0  0
    3.9417    1.4583    0.0000 C   0  0  0  0  0  0  0  0  0  0  0  0
    5.6167   -0.5542    0.0000 C   0  0  0  0  0  0  0  0  0  0  0  0
    6.6292    1.7083    0.0000 Br  0  0  0  0  0  0  0  0  0  0  0  0
    6.4417   -0.4792    0.0000 C   0  0  0  0  0  0  0  0  0  0  0  0
   -4.1458    0.3208    0.0000 C   0  0  0  0  0  0  0  0  0  0  0  0
    6.7792    0.2750    0.0000 C   0  0  0  0  0  0  0  0  0  0  0  0
   -2.7208   -0.5125    0.0000 C   0  0  0  0  0  0  0  0  0  0  0  0
   -4.1458   -0.5042    0.0000 C   0  0  0  0  0  0  0  0  0  0  0  0
   -3.4333   -0.9250    0.0000 C   0  0  0  0  0  0  0  0  0  0  0  0
  2  1  1  0  0  0  0
  3  4  2  0  0  0  0
  4  1  1  0  0  0  0
  5  2  2  0  0  0  0
  6 12  1  0  0  0  0
  7  1  1  0  0  0  0
  8  6  1  0  0  0  0
  9  7  1  0  0  0  0
 10  8  1  0  0  0  0
 11 13  2  0  0  0  0
 12 11  1  0  0  0  0
 13  3  1  0  0  0  0
 14  6  2  0  0  0  0
 15 19  1  0  0  0  0
 16  8  2  0  0  0  0
 17  9  2  0  0  0  0
 18 10  1  0  0  0  0
 19 18  1  0  0  0  0
 20  2  1  0  0  0  0
 21  4  1  0  0  0  0
 22  7  2  0  0  0  0
 23 17  1  0  0  0  0
 24 22  1  0  0  0  0
 25 15  2  0  0  0  0
 26 24  2  0  0  0  0
 27 19  2  0  0  0  0
 28 29  2  0  0  0  0
 29 27  1  0  0  0  0
  3  5  1  0  0  0  0
 17 26  1  0  0  0  0
 25 28  1  0  0  0  0
M  END
> <#>
1555

> <PLATE>
LAT020

> <ROW>
C

> <COL>
6

> <COORD>
C06

> <LATID>
LAT020C06

> <Supplier>
Chembridge

> <Suplier_CAT#>
6227971

> <Name>
Novel

> <Concentration_(mM)>
2.5

> <IC50_(µM)>
100

> <Yeast_Active?>
-

> <Pubchem_CID>
2273825

$$$$
