
  -ISIS-  08130814242D

 27 28  0  0  0  0  0  0  0  0999 V2000
    3.3792    2.4583    0.0000 C   0  0  0  0  0  0  0  0  0  0  0  0
    2.6292    2.3750    0.0000 N   0  0  3  0  0  0  0  0  0  0  0  0
    3.6792    1.7708    0.0000 N   0  0  0  0  0  0  0  0  0  0  0  0
    2.4792    1.6458    0.0000 C   0  0  0  0  0  0  0  0  0  0  0  0
    3.1292    1.2708    0.0000 C   0  0  0  0  0  0  0  0  0  0  0  0
    3.7542    3.1083    0.0000 N   0  0  0  0  0  0  0  0  0  0  0  0
    2.1292    2.9333    0.0000 C   0  0  0  0  0  0  0  0  0  0  0  0
    0.8917    3.3333    0.0000 N   0  0  3  0  0  0  0  0  0  0  0  0
    5.6292    3.7583    0.0000 N   0  0  0  0  0  0  0  0  0  0  0  0
    1.4000    2.7833    0.0000 C   0  0  0  0  0  0  0  0  0  0  0  0
    4.5042    3.1083    0.0000 C   0  0  0  0  0  0  0  0  0  0  0  0
    4.8792    3.7583    0.0000 C   0  0  0  0  0  0  0  0  0  0  0  0
    1.8292    1.2708    0.0000 C   0  0  0  0  0  0  0  0  0  0  0  0
    3.1292    0.5208    0.0000 C   0  0  0  0  0  0  0  0  0  0  0  0
    1.1292    4.0417    0.0000 C   0  0  0  0  0  0  0  0  0  0  0  0
    0.1625    3.1833    0.0000 C   0  0  0  0  0  0  0  0  0  0  0  0
    6.0042    4.4000    0.0000 C   0  0  0  0  0  0  0  0  0  0  0  0
    4.5042    4.4000    0.0000 C   0  0  0  0  0  0  0  0  0  0  0  0
    1.8292    0.5208    0.0000 C   0  0  0  0  0  0  0  0  0  0  0  0
   -0.3375    3.7375    0.0000 C   0  0  0  0  0  0  0  0  0  0  0  0
    0.6250    4.5917    0.0000 C   0  0  0  0  0  0  0  0  0  0  0  0
    2.4792    0.1458    0.0000 C   0  0  0  0  0  0  0  0  0  0  0  0
    5.6292    5.0417    0.0000 C   0  0  0  0  0  0  0  0  0  0  0  0
    4.8792    5.0417    0.0000 C   0  0  0  0  0  0  0  0  0  0  0  0
   -0.1083    4.4417    0.0000 C   0  0  0  0  0  0  0  0  0  0  0  0
    6.7542    0.1458    0.0000 Cl  0  0  0  0  0  0  0  0  0  0  0  0
    7.5042    0.1458    0.0000 Cl  0  0  0  0  0  0  0  0  0  0  0  0
  2  1  1  0  0  0  0
  3  1  2  0  0  0  0
  4  2  1  0  0  0  0
  5  3  1  0  0  0  0
  6  1  1  0  0  0  0
  7  2  1  0  0  0  0
  8 10  1  0  0  0  0
  9 12  1  0  0  0  0
 10  7  1  0  0  0  0
 11  6  1  0  0  0  0
 12 11  1  0  0  0  0
 13  4  1  0  0  0  0
 14  5  1  0  0  0  0
 15  8  1  0  0  0  0
 16  8  1  0  0  0  0
 17  9  2  0  0  0  0
 18 12  2  0  0  0  0
 19 13  2  0  0  0  0
 20 16  1  0  0  0  0
 21 15  1  0  0  0  0
 22 14  2  0  0  0  0
 23 24  2  0  0  0  0
 24 18  1  0  0  0  0
 25 20  1  0  0  0  0
  4  5  2  0  0  0  0
 22 19  1  0  0  0  0
 17 23  1  0  0  0  0
 21 25  1  0  0  0  0
M  END
> <#>
1579

> <PLATE>
LAT020

> <ROW>
C

> <COL>
9

> <COORD>
C09

> <LATID>
LAT020C09

> <Supplier>
Chembridge

> <Suplier_CAT#>
7962036

> <Name>
Novel

> <Concentration_(mM)>
2.5

> <IC50_(µM)>
inactive

> <Yeast_Active?>
-

> <Pubchem_CID>
1252326

$$$$
