
  -ISIS-  08130814242D

 16 16  0  0  0  0  0  0  0  0999 V2000
   -0.2447   -2.1804    0.0000 N   0  0  0  0  0  0  0  0  0  0  0  0
    0.4900   -3.1917    0.0000 C   0  0  0  0  0  0  0  0  0  0  0  0
   -0.2447   -4.2029    0.0000 N   0  0  0  0  0  0  0  0  0  0  0  0
   -1.4335   -3.8167    0.0000 C   0  0  0  0  0  0  0  0  0  0  0  0
   -2.5161   -4.4417    0.0000 N   0  0  0  0  0  0  0  0  0  0  0  0
   -3.5986   -3.8167    0.0000 C   0  0  0  0  0  0  0  0  0  0  0  0
   -3.5986   -2.5667    0.0000 N   0  0  0  0  0  0  0  0  0  0  0  0
   -2.5161   -1.9417    0.0000 C   0  0  0  0  0  0  0  0  0  0  0  0
   -1.4335   -2.5667    0.0000 C   0  0  0  0  0  0  0  0  0  0  0  0
   -2.5161   -0.6917    0.0000 N   0  0  0  0  0  0  0  0  0  0  0  0
   -4.6811   -4.4417    0.0000 N   0  0  0  0  0  0  0  0  0  0  0  0
   -3.5986    1.1833    0.0000 S   0  0  3  0  0  0  0  0  0  0  0  0
   -3.5986   -0.0667    0.0000 O   0  0  0  0  0  0  0  0  0  0  0  0
   -3.5986    2.4333    0.0000 O   0  0  0  0  0  0  0  0  0  0  0  0
   -4.8486    1.1833    0.0000 O   0  0  0  0  0  0  0  0  0  0  0  0
   -2.3486    1.1833    0.0000 O   0  0  0  0  0  0  0  0  0  0  0  0
  4  5  1  0  0  0  0
  5  6  2  0  0  0  0
  6  7  1  0  0  0  0
  7  8  2  0  0  0  0
  8  9  1  0  0  0  0
  1  9  1  0  0  0  0
  4  9  2  0  0  0  0
  8 10  1  0  0  0  0
  6 11  1  0  0  0  0
  1  2  1  0  0  0  0
  2  3  2  0  0  0  0
  3  4  1  0  0  0  0
 12 13  2  0  0  0  0
 12 14  2  0  0  0  0
 12 15  1  0  0  0  0
 12 16  1  0  0  0  0
M  END
> <#>
438

> <PLATE>
LAT006

> <ROW>
F

> <COL>
6

> <COORD>
F06

> <LATID>
LAT006F06

> <Supplier>
Aldrich

> <Suplier_CAT#>
28,554-4

> <Name>
2,6-Diaminopurine Sulfate

> <Concentration_(mM)>
2.5

> <IC50_(µM)>
20

> <Yeast_Active?>
-

> <Pubchem_CID>
81695

$$$$
