
  -ISIS-  08130814242D

 22 22  0  0  0  0  0  0  0  0999 V2000
   -6.3167    1.5625    0.0000 S   0  0  3  0  0  0  0  0  0  0  0  0
   -5.5208    2.0458    0.0000 C   0  0  0  0  0  0  0  0  0  0  0  0
   -3.9208    2.0458    0.0000 C   0  0  0  0  0  0  0  0  0  0  0  0
   -4.7208    1.5833    0.0000 C   0  0  0  0  0  0  0  0  0  0  0  0
   -3.1000    1.5625    0.0000 C   0  0  0  0  0  0  0  0  0  0  0  0
   -5.5208    2.9625    0.0000 C   0  0  0  0  0  0  0  0  0  0  0  0
   -3.9208    2.9625    0.0000 C   0  0  0  0  0  0  0  0  0  0  0  0
   -4.7208    3.4208    0.0000 C   0  0  0  0  0  0  0  0  0  0  0  0
   -5.8625    0.7625    0.0000 O   0  0  0  0  0  0  0  0  0  0  0  0
   -6.7917    2.3833    0.0000 O   0  0  0  0  0  0  0  0  0  0  0  0
   -3.1208    0.6458    0.0000 O   0  0  0  0  0  0  0  0  0  0  0  0
   -7.1375    1.1000    0.0000 O   0  0  0  0  0  0  0  0  0  0  0  0
   -2.3000    2.0208    0.0000 C   0  0  0  0  0  0  0  0  0  0  0  0
   -3.1208    3.4208    0.0000 O   0  0  0  0  0  0  0  0  0  0  0  0
   -6.3375    3.4208    0.0000 O   0  0  0  0  0  0  0  0  0  0  0  0
   -2.3000    2.9458    0.0000 C   0  0  0  0  0  0  0  0  0  0  0  0
   -1.5208    1.5625    0.0000 C   0  0  0  0  0  0  0  0  0  0  0  0
   -7.1167    2.9458    0.0000 C   0  0  0  0  0  0  0  0  0  0  0  0
   -1.5000    3.4000    0.0000 C   0  0  0  0  0  0  0  0  0  0  0  0
   -0.7208    2.0208    0.0000 C   0  0  0  0  0  0  0  0  0  0  0  0
   -0.7000    2.9458    0.0000 C   0  0  0  0  0  0  0  0  0  0  0  0
    0.3500    1.4125    0.0000 O   0  0  0  0  0  0  0  0  0  0  0  0
  2  1  1  0  0  0  0
  3  4  1  0  0  0  0
  4  2  2  0  0  0  0
  5  3  1  0  0  0  0
  6  2  1  0  0  0  0
  7  8  1  0  0  0  0
  8  6  2  0  0  0  0
  9  1  2  0  0  0  0
 10  1  2  0  0  0  0
 11  5  2  0  0  0  0
 12  1  1  0  0  0  0
 13  5  1  0  0  0  0
 14  7  1  0  0  0  0
 15  6  1  0  0  0  0
 16 13  1  0  0  0  0
 17 13  2  0  0  0  0
 18 15  1  0  0  0  0
 19 16  2  0  0  0  0
 20 17  1  0  0  0  0
 21 20  2  0  0  0  0
  7  3  2  0  0  0  0
 19 21  1  0  0  0  0
M  END
> <#>
1116

> <PLATE>
LAT014

> <ROW>
D

> <COL>
11

> <COORD>
D11

> <LATID>
LAT014D11

> <Supplier>
Chembridge

> <Suplier_CAT#>
5304975

> <Name>
Novel

> <Concentration_(mM)>
2.5

> <IC50_(µM)>
inactive

> <Yeast_Active?>
-

> <Pubchem_CID>
2840109

$$$$
