
  -ISIS-  08130814242D

 15 15  0  0  0  0  0  0  0  0999 V2000
   -4.3333   -1.2500    0.0000 S   0  0  3  0  0  0  0  0  0  0  0  0
   -3.6125   -1.0500    0.0000 N   0  0  0  0  0  0  0  0  0  0  0  0
   -3.4333   -0.3292    0.0000 N   0  0  0  0  0  0  0  0  0  0  0  0
   -4.5333   -0.5042    0.0000 O   0  0  0  0  0  0  0  0  0  0  0  0
   -4.1583   -1.9667    0.0000 O   0  0  0  0  0  0  0  0  0  0  0  0
   -2.6958   -0.1167    0.0000 C   0  0  0  0  0  0  0  0  0  0  0  0
   -2.5125    0.6208    0.0000 C   0  0  0  0  0  0  0  0  0  0  0  0
   -1.7833    0.8458    0.0000 C   0  0  0  0  0  0  0  0  0  0  0  0
   -3.0500    1.1500    0.0000 C   0  0  0  0  0  0  0  0  0  0  0  0
   -5.0708   -1.4292    0.0000 C   0  0  0  0  0  0  0  0  0  0  0  0
   -2.1333    2.1125    0.0000 C   0  0  0  0  0  0  0  0  0  0  0  0
   -2.8708    1.8958    0.0000 C   0  0  0  0  0  0  0  0  0  0  0  0
   -1.5958    1.5708    0.0000 C   0  0  0  0  0  0  0  0  0  0  0  0
   -1.9458    2.8500    0.0000 Br  0  0  0  0  0  0  0  0  0  0  0  0
   -2.1500   -0.6292    0.0000 C   0  0  0  0  0  0  0  0  0  0  0  0
  2  1  1  0  0  0  0
  3  2  1  0  0  0  0
  4  1  2  0  0  0  0
  5  1  2  0  0  0  0
  6  3  2  0  0  0  0
  7  6  1  0  0  0  0
  8  7  2  0  0  0  0
  9  7  1  0  0  0  0
 10  1  1  0  0  0  0
 11 12  1  0  0  0  0
 12  9  2  0  0  0  0
 13  8  1  0  0  0  0
 14 11  1  0  0  0  0
 15  6  1  0  0  0  0
 11 13  2  0  0  0  0
M  END
> <#>
594

> <PLATE>
LAT008

> <ROW>
B

> <COL>
6

> <COORD>
B06

> <LATID>
LAT008B06

> <Supplier>
Chembridge

> <Suplier_CAT#>
5478603

> <Name>
Novel

> <Sec_Name>
140_G09

> <Concentration_(mM)>
2.5

> <IC50_(µM)>
28

> <Yeast_Active?>
-

> <Pubchem_CID>
868484

$$$$
