
  -ISIS-  08130814242D

 21 23  0  0  0  0  0  0  0  0999 V2000
    0.9042   -2.0542    0.0000 C   0  0  0  0  0  0  0  0  0  0  0  0
    0.2875   -1.1792    0.0000 C   0  0  0  0  0  0  0  0  0  0  0  0
   -0.7500   -1.5167    0.0000 C   0  0  0  0  0  0  0  0  0  0  0  0
    0.2875   -2.9375    0.0000 S   0  0  0  0  0  0  0  0  0  0  0  0
   -0.7500   -2.6167    0.0000 C   0  0  0  0  0  0  0  0  0  0  0  0
    2.0042   -2.0542    0.0000 C   0  0  0  0  0  0  0  0  0  0  0  0
   -1.6958   -3.1542    0.0000 N   0  0  0  0  0  0  0  0  0  0  0  0
   -1.6958   -0.9792    0.0000 C   0  0  0  0  0  0  0  0  0  0  0  0
    2.5500   -1.1000    0.0000 C   0  0  0  0  0  0  0  0  0  0  0  0
   -2.6333   -1.5167    0.0000 C   0  0  0  0  0  0  0  0  0  0  0  0
   -2.6333   -2.6000    0.0000 C   0  0  0  0  0  0  0  0  0  0  0  0
    0.6292   -0.1375    0.0000 N   0  0  0  0  0  0  0  0  0  0  0  0
    2.5667   -3.0000    0.0000 O   0  0  0  0  0  0  0  0  0  0  0  0
    3.6500   -1.1000    0.0000 C   0  0  0  0  0  0  0  0  0  0  0  0
    2.0042   -0.1542    0.0000 C   0  0  0  0  0  0  0  0  0  0  0  0
    3.6292    0.8000    0.0000 C   0  0  0  0  0  0  0  0  0  0  0  0
    2.5500    0.7833    0.0000 C   0  0  0  0  0  0  0  0  0  0  0  0
    4.1875   -0.1542    0.0000 C   0  0  0  0  0  0  0  0  0  0  0  0
   -1.6958    0.1208    0.0000 C   0  0  0  0  0  0  0  0  0  0  0  0
    4.1667    1.7625    0.0000 O   0  0  0  0  0  0  0  0  0  0  0  0
   -3.5958   -3.1375    0.0000 C   0  0  0  0  0  0  0  0  0  0  0  0
  2  1  2  0  0  0  0
  3  2  1  0  0  0  0
  4  1  1  0  0  0  0
  5  4  1  0  0  0  0
  6  1  1  0  0  0  0
  7  5  2  0  0  0  0
  8  3  2  0  0  0  0
  9  6  1  0  0  0  0
 10  8  1  0  0  0  0
 11  7  1  0  0  0  0
 12  2  1  0  0  0  0
 13  6  2  0  0  0  0
 14  9  2  0  0  0  0
 15  9  1  0  0  0  0
 16 17  1  0  0  0  0
 17 15  2  0  0  0  0
 18 14  1  0  0  0  0
 19  8  1  0  0  0  0
 20 16  1  0  0  0  0
 21 11  1  0  0  0  0
  3  5  1  0  0  0  0
 16 18  2  0  0  0  0
 10 11  2  0  0  0  0
M  END
> <#>
1269

> <PLATE>
LAT016

> <ROW>
E

> <COL>
10

> <COORD>
E10

> <LATID>
LAT016E10

> <Supplier>
Chembridge

> <Suplier_CAT#>
6632873

> <Name>
Novel

> <Concentration_(mM)>
2.5

> <IC50_(µM)>
inactive

> <Yeast_Active?>
-

> <Pubchem_CID>
885513

$$$$
