
  -ISIS-  08130814242D

 26 28  0  0  0  0  0  0  0  0999 V2000
    3.2042   -3.7667    0.0000 N   0  0  0  0  0  0  0  0  0  0  0  0
    4.0167   -2.3667    0.0000 C   0  0  0  0  0  0  0  0  0  0  0  0
    4.0167   -3.3042    0.0000 C   0  0  0  0  0  0  0  0  0  0  0  0
    7.2667   -2.3667    0.0000 C   0  0  0  0  0  0  0  0  0  0  0  0
    3.2042   -1.9000    0.0000 C   0  0  0  0  0  0  0  0  0  0  0  0
    2.4000   -3.3042    0.0000 C   0  0  0  0  0  0  0  0  0  0  0  0
    5.6375   -2.3667    0.0000 N   0  0  0  0  0  0  0  0  0  0  0  0
   11.3167   -1.9000    0.0000 C   0  0  0  0  0  0  0  0  0  0  0  0
    2.4000   -2.3667    0.0000 C   0  0  0  0  0  0  0  0  0  0  0  0
    4.8292   -1.9000    0.0000 C   0  0  0  0  0  0  0  0  0  0  0  0
    6.4500   -1.9000    0.0000 N   0  0  0  0  0  0  0  0  0  0  0  0
   11.3167   -0.9542    0.0000 C   0  0  0  0  0  0  0  0  0  0  0  0
   10.5042   -2.3667    0.0000 C   0  0  0  0  0  0  0  0  0  0  0  0
    7.2667   -3.3042    0.0000 O   0  0  0  0  0  0  0  0  0  0  0  0
   10.5042   -0.5000    0.0000 C   0  0  0  0  0  0  0  0  0  0  0  0
    4.8292   -3.7667    0.0000 Cl  0  0  0  0  0  0  0  0  0  0  0  0
    8.0792   -1.9000    0.0000 C   0  0  0  0  0  0  0  0  0  0  0  0
    9.7000   -1.9000    0.0000 C   0  0  0  0  0  0  0  0  0  0  0  0
    8.8875   -2.3667    0.0000 O   0  0  0  0  0  0  0  0  0  0  0  0
    9.7000   -0.9542    0.0000 C   0  0  0  0  0  0  0  0  0  0  0  0
   12.1375   -2.3500    0.0000 C   0  0  0  0  0  0  0  0  0  0  0  0
    1.6000   -3.7542    0.0000 C   0  0  0  0  0  0  0  0  0  0  0  0
    1.6000   -1.8792    0.0000 C   0  0  0  0  0  0  0  0  0  0  0  0
   12.1375   -0.5000    0.0000 C   0  0  0  0  0  0  0  0  0  0  0  0
    0.7667   -2.3667    0.0000 C   0  0  0  0  0  0  0  0  0  0  0  0
    0.7667   -3.3042    0.0000 C   0  0  0  0  0  0  0  0  0  0  0  0
  2  3  1  0  0  0  0
  3  1  2  0  0  0  0
  4 11  1  0  0  0  0
  5  9  1  0  0  0  0
  6  1  1  0  0  0  0
  7 10  2  0  0  0  0
  8 13  1  0  0  0  0
  9  6  2  0  0  0  0
 10  2  1  0  0  0  0
 11  7  1  0  0  0  0
 12 15  1  0  0  0  0
 13 18  2  0  0  0  0
 14  4  2  0  0  0  0
 15 20  2  0  0  0  0
 16  3  1  0  0  0  0
 17  4  1  0  0  0  0
 18 19  1  0  0  0  0
 19 17  1  0  0  0  0
 20 18  1  0  0  0  0
 21  8  1  0  0  0  0
 22  6  1  0  0  0  0
 23  9  1  0  0  0  0
 24 12  1  0  0  0  0
 25 26  1  0  0  0  0
 26 22  2  0  0  0  0
  2  5  2  0  0  0  0
 23 25  2  0  0  0  0
 12  8  2  0  0  0  0
M  END
> <#>
1611

> <PLATE>
LAT021

> <ROW>
C

> <COL>
3

> <COORD>
C03

> <LATID>
LAT021C03

> <Supplier>
Chembridge

> <Suplier_CAT#>
5200987

> <Name>
Novel

> <Concentration_(mM)>
2.5

> <IC50_(µM)>
inactive

> <Yeast_Active?>
-

> <Pubchem_CID>
1377587

$$$$
