
  -ISIS-  08130814242D

 25 27  0  0  0  0  0  0  0  0999 V2000
   -0.3333   -0.2000    0.0000 C   0  0  0  0  0  0  0  0  0  0  0  0
   -1.5708   -0.2000    0.0000 C   0  0  3  0  0  0  0  0  0  0  0  0
    3.3292   -2.3042    0.0000 C   0  0  0  0  0  0  0  0  0  0  0  0
    4.0542   -1.3042    0.0000 C   0  0  0  0  0  0  0  0  0  0  0  0
    4.0500   -3.3042    0.0000 S   0  0  0  0  0  0  0  0  0  0  0  0
    1.5167   -1.2542    0.0000 N   0  0  0  0  0  0  0  0  0  0  0  0
    2.1167   -2.3042    0.0000 C   0  0  0  0  0  0  0  0  0  0  0  0
    5.2292   -2.9042    0.0000 C   0  0  0  0  0  0  0  0  0  0  0  0
    0.2542   -1.2542    0.0000 N   0  0  0  0  0  0  0  0  0  0  0  0
    5.2000   -1.7042    0.0000 C   0  0  0  0  0  0  0  0  0  0  0  0
    0.2542    0.8708    0.0000 O   0  0  0  0  0  0  0  0  0  0  0  0
   -2.8000   -0.2000    0.0000 C   0  0  0  0  0  0  0  0  0  0  0  0
   -1.5708    1.0500    0.0000 C   0  0  0  0  0  0  0  0  0  0  0  0
   -1.5708   -1.4042    0.0000 O   0  0  0  0  0  0  0  0  0  0  0  0
    3.6667   -0.3167    0.0000 C   0  0  0  0  0  0  0  0  0  0  0  0
   -3.4208    0.8708    0.0000 C   0  0  0  0  0  0  0  0  0  0  0  0
   -3.4208   -1.2542    0.0000 C   0  0  0  0  0  0  0  0  0  0  0  0
   -2.6500    1.6708    0.0000 C   0  0  0  0  0  0  0  0  0  0  0  0
   -0.5125    1.6708    0.0000 C   0  0  0  0  0  0  0  0  0  0  0  0
   -0.5125    2.8833    0.0000 C   0  0  0  0  0  0  0  0  0  0  0  0
   -4.6333    0.8708    0.0000 C   0  0  0  0  0  0  0  0  0  0  0  0
   -4.6625   -1.2542    0.0000 C   0  0  0  0  0  0  0  0  0  0  0  0
   -2.6500    2.9125    0.0000 C   0  0  0  0  0  0  0  0  0  0  0  0
   -1.5708    3.5208    0.0000 C   0  0  0  0  0  0  0  0  0  0  0  0
   -5.2708   -0.2000    0.0000 C   0  0  0  0  0  0  0  0  0  0  0  0
  2  1  1  0  0  0  0
  3  7  1  0  0  0  0
  4  3  2  0  0  0  0
  5  3  1  0  0  0  0
  6  9  1  0  0  0  0
  7  6  2  0  0  0  0
  8  5  1  0  0  0  0
  9  1  1  0  0  0  0
 10  4  1  0  0  0  0
 11  1  2  0  0  0  0
 12  2  1  0  0  0  0
 13  2  1  0  0  0  0
 14  2  1  0  0  0  0
 15  4  1  0  0  0  0
 16 12  1  0  0  0  0
 17 12  2  0  0  0  0
 18 13  2  0  0  0  0
 19 13  1  0  0  0  0
 20 19  2  0  0  0  0
 21 16  2  0  0  0  0
 22 17  1  0  0  0  0
 23 18  1  0  0  0  0
 24 20  1  0  0  0  0
 25 22  2  0  0  0  0
 24 23  2  0  0  0  0
 21 25  1  0  0  0  0
 10  8  2  0  0  0  0
M  END
> <#>
2045

> <PLATE>
LAT026

> <ROW>
E

> <COL>
7

> <COORD>
E07

> <LATID>
LAT026E07

> <Supplier>
Chembridge

> <Suplier_CAT#>
5538806

> <Sec_Name>
157_F05

> <Concentration_(mM)>
2.5

> <IC50_(µM)>
25

> <Yeast_Active?>
-

> <Pubchem_CID>
5057742

$$$$
