
  -ISIS-  08130814242D

 30 33  0  0  0  0  0  0  0  0999 V2000
    2.1625   -1.3042    0.0000 C   0  0  0  0  0  0  0  0  0  0  0  0
    1.6792   -1.9792    0.0000 C   0  0  0  0  0  0  0  0  0  0  0  0
    1.9042   -0.5125    0.0000 C   0  0  0  0  0  0  0  0  0  0  0  0
    2.1625   -2.6417    0.0000 S   0  0  0  0  0  0  0  0  0  0  0  0
    2.9500   -1.5625    0.0000 C   0  0  0  0  0  0  0  0  0  0  0  0
    2.9500   -2.3917    0.0000 C   0  0  0  0  0  0  0  0  0  0  0  0
    2.4625    0.0958    0.0000 N   0  0  0  0  0  0  0  0  0  0  0  0
    2.2167    0.8708    0.0000 C   0  0  0  0  0  0  0  0  0  0  0  0
    0.8500   -1.9792    0.0000 N   0  0  0  0  0  0  0  0  0  0  0  0
    2.7750    1.4833    0.0000 C   0  0  0  0  0  0  0  0  0  0  0  0
    1.0917   -0.4042    0.0000 O   0  0  0  0  0  0  0  0  0  0  0  0
    1.4292    1.0458    0.0000 C   0  0  0  0  0  0  0  0  0  0  0  0
    0.4375   -4.1417    0.0000 N   0  0  0  0  0  0  0  0  0  0  0  0
    1.1667    1.8500    0.0000 C   0  0  0  0  0  0  0  0  0  0  0  0
    2.5292    2.2708    0.0000 C   0  0  0  0  0  0  0  0  0  0  0  0
    0.4292   -2.6917    0.0000 C   0  0  0  0  0  0  0  0  0  0  0  0
    0.8625   -3.4250    0.0000 C   0  0  0  0  0  0  0  0  0  0  0  0
    3.5917   -1.0417    0.0000 C   0  0  0  0  0  0  0  0  0  0  0  0
    1.7042    2.4583    0.0000 C   0  0  0  0  0  0  0  0  0  0  0  0
    3.0917    2.8750    0.0000 Cl  0  0  0  0  0  0  0  0  0  0  0  0
    3.5917   -2.9042    0.0000 C   0  0  0  0  0  0  0  0  0  0  0  0
    0.8667    0.4250    0.0000 O   0  0  0  0  0  0  0  0  0  0  0  0
    0.8542   -4.8500    0.0000 C   0  0  0  0  0  0  0  0  0  0  0  0
    1.6750   -3.4167    0.0000 C   0  0  0  0  0  0  0  0  0  0  0  0
    0.1542    0.6583    0.0000 C   0  0  0  0  0  0  0  0  0  0  0  0
    4.4000   -1.2292    0.0000 C   0  0  0  0  0  0  0  0  0  0  0  0
    4.4000   -2.7167    0.0000 C   0  0  0  0  0  0  0  0  0  0  0  0
    1.6917   -4.8417    0.0000 C   0  0  0  0  0  0  0  0  0  0  0  0
    2.0917   -4.1250    0.0000 C   0  0  0  0  0  0  0  0  0  0  0  0
    4.7542   -1.9667    0.0000 C   0  0  0  0  0  0  0  0  0  0  0  0
  2  1  2  0  0  0  0
  3  1  1  0  0  0  0
  4  2  1  0  0  0  0
  5  1  1  0  0  0  0
  6  5  2  0  0  0  0
  7  3  1  0  0  0  0
  8  7  1  0  0  0  0
  9  2  1  0  0  0  0
 10  8  2  0  0  0  0
 11  3  2  0  0  0  0
 12  8  1  0  0  0  0
 13 17  1  0  0  0  0
 14 12  2  0  0  0  0
 15 10  1  0  0  0  0
 16  9  1  0  0  0  0
 17 16  1  0  0  0  0
 18  5  1  0  0  0  0
 19 14  1  0  0  0  0
 20 15  1  0  0  0  0
 21  6  1  0  0  0  0
 22 12  1  0  0  0  0
 23 13  2  0  0  0  0
 24 17  2  0  0  0  0
 25 22  1  0  0  0  0
 26 18  1  0  0  0  0
 27 21  1  0  0  0  0
 28 29  2  0  0  0  0
 29 24  1  0  0  0  0
 30 26  1  0  0  0  0
  4  6  1  0  0  0  0
 27 30  1  0  0  0  0
 19 15  2  0  0  0  0
 28 23  1  0  0  0  0
M  END
> <#>
1562

> <PLATE>
LAT020

> <ROW>
B

> <COL>
7

> <COORD>
B07

> <LATID>
LAT020B07

> <Supplier>
Chembridge

> <Suplier_CAT#>
7611468

> <Name>
Novel

> <Concentration_(mM)>
2.5

> <IC50_(µM)>
inactive

> <Yeast_Active?>
-

> <Pubchem_CID>
1318144

$$$$
