
  -ISIS-  08130814242D

 25 28  0  0  0  0  0  0  0  0999 V2000
   -1.9458    5.2167    0.0000 C   0  0  0  0  0  0  0  0  0  0  0  0
   -3.9958    8.6500    0.0000 C   0  0  0  0  0  0  0  0  0  0  0  0
    1.9375   -1.5792    0.0000 N   0  0  0  0  0  0  0  0  0  0  0  0
   -1.9458   -1.6875    0.0000 C   0  0  0  0  0  0  0  0  0  0  0  0
   -3.9458    1.7958    0.0000 C   0  0  0  0  0  0  0  0  0  0  0  0
   -7.9792    8.6500    0.0000 N   0  0  3  0  0  0  0  0  0  0  0  0
    1.9375    5.2167    0.0000 C   0  0  0  0  0  0  0  0  0  0  0  0
    3.8875    1.7958    0.0000 C   0  0  0  0  0  0  0  0  0  0  0  0
   -3.9958   -5.0167    0.0000 C   0  0  0  0  0  0  0  0  0  0  0  0
   -2.0458   12.1292    0.0000 O   0  0  0  0  0  0  0  0  0  0  0  0
   -2.0458   -8.4500    0.0000 C   0  0  0  0  0  0  0  0  0  0  0  0
  -16.0000    8.8167    0.0000 O   0  0  0  0  0  0  0  0  0  0  0  0
   -3.9958  -11.9292    0.0000 C   0  0  0  0  0  0  0  0  0  0  0  0
   -2.0458  -15.3542    0.0000 Br  0  0  0  0  0  0  0  0  0  0  0  0
  -10.0292    5.1500    0.0000 C   0  0  0  0  0  0  0  0  0  0  0  0
   -9.9792   12.1000    0.0000 C   0  0  0  0  0  0  0  0  0  0  0  0
    3.8875    8.6500    0.0000 C   0  0  0  0  0  0  0  0  0  0  0  0
   -7.9792   -5.0167    0.0000 C   0  0  0  0  0  0  0  0  0  0  0  0
    7.8792    1.7958    0.0000 C   0  0  0  0  0  0  0  0  0  0  0  0
   -9.9292   -8.4000    0.0000 C   0  0  0  0  0  0  0  0  0  0  0  0
  -14.1000    5.1500    0.0000 C   0  0  0  0  0  0  0  0  0  0  0  0
  -13.9375   12.1542    0.0000 C   0  0  0  0  0  0  0  0  0  0  0  0
   -7.9792  -11.8292    0.0000 C   0  0  0  0  0  0  0  0  0  0  0  0
    7.8792    8.6500    0.0000 C   0  0  0  0  0  0  0  0  0  0  0  0
    9.8292    5.2167    0.0000 C   0  0  0  0  0  0  0  0  0  0  0  0
  2  1  1  0  0  0  0
  3  8  2  0  0  0  0
  4  5  2  0  0  0  0
  5  1  1  0  0  0  0
  6  2  1  0  0  0  0
  7  1  2  0  0  0  0
  8  7  1  0  0  0  0
  9  4  1  0  0  0  0
 10  2  2  0  0  0  0
 11  9  2  0  0  0  0
 12 22  1  0  0  0  0
 13 11  1  0  0  0  0
 14 13  1  0  0  0  0
 15  6  1  0  0  0  0
 16  6  1  0  0  0  0
 17  7  1  0  0  0  0
 18  9  1  0  0  0  0
 19  8  1  0  0  0  0
 20 18  2  0  0  0  0
 21 15  1  0  0  0  0
 22 16  1  0  0  0  0
 23 20  1  0  0  0  0
 24 17  2  0  0  0  0
 25 24  1  0  0  0  0
  4  3  1  0  0  0  0
 25 19  2  0  0  0  0
 12 21  1  0  0  0  0
 23 13  2  0  0  0  0
M  END
> <#>
881

> <PLATE>
LAT012

> <ROW>
A

> <COL>
2

> <COORD>
A02

> <LATID>
LAT012A02

> <Supplier>
Chembridge

> <Suplier_CAT#>
5701202

> <Name>
Novel

> <Sec_Name>
223_D06

> <Concentration_(mM)>
2.5

> <IC50_(µM)>
32

> <Yeast_Active?>
-

> <Pubchem_CID>
1220575

$$$$
