
  -ISIS-  08130814242D

 37 40  0  0  0  0  0  0  0  0999 V2000
   13.1625    5.5875    0.0000 N   0  0  3  0  0  0  0  0  0  0  0  0
   14.1000    7.1250    0.0000 C   0  0  0  0  0  0  0  0  0  0  0  0
   15.8875    6.8750    0.0000 N   0  0  0  0  0  0  0  0  0  0  0  0
   14.3000    4.2167    0.0000 C   0  0  0  0  0  0  0  0  0  0  0  0
   16.0000    4.9000    0.0000 N   0  0  0  0  0  0  0  0  0  0  0  0
    9.0625   -3.9000    0.0000 C   0  0  0  0  0  0  0  0  0  0  0  0
   12.1875   -3.8750    0.0000 C   0  0  0  0  0  0  0  0  0  0  0  0
    7.4875   -3.0125    0.0000 C   0  0  0  0  0  0  0  0  0  0  0  0
   13.9000    2.4875    0.0000 S   0  0  0  0  0  0  0  0  0  0  0  0
   10.6125   -2.9875    0.0000 C   0  0  0  0  0  0  0  0  0  0  0  0
   13.3125    8.7542    0.0000 C   0  0  0  0  0  0  0  0  0  0  0  0
   12.2500   -0.1875    0.0000 C   0  0  0  0  0  0  0  0  0  0  0  0
   12.2000   -5.7000    0.0000 C   0  0  0  0  0  0  0  0  0  0  0  0
   13.7875   -1.1375    0.0000 N   0  0  0  0  0  0  0  0  0  0  0  0
   13.7500   -2.9625    0.0000 C   0  0  0  0  0  0  0  0  0  0  0  0
    9.0625   -5.7125    0.0000 C   0  0  0  0  0  0  0  0  0  0  0  0
    7.4750   -1.1875    0.0000 O   0  0  0  0  0  0  0  0  0  0  0  0
   11.3500    5.4625    0.0000 C   0  0  0  0  0  0  0  0  0  0  0  0
    5.9125   -3.9250    0.0000 C   0  0  0  0  0  0  0  0  0  0  0  0
   10.6625   -1.0500    0.0000 O   0  0  0  0  0  0  0  0  0  0  0  0
   10.6250   -6.6125    0.0000 C   0  0  0  0  0  0  0  0  0  0  0  0
   10.3500    6.9500    0.0000 C   0  0  0  0  0  0  0  0  0  0  0  0
   12.3000    1.6250    0.0000 C   0  0  0  0  0  0  0  0  0  0  0  0
   14.3500   10.2375    0.0000 C   0  0  0  0  0  0  0  0  0  0  0  0
   11.5125    8.8792    0.0000 C   0  0  0  0  0  0  0  0  0  0  0  0
    8.5375    6.8125    0.0000 C   0  0  0  0  0  0  0  0  0  0  0  0
   11.7875   12.0250    0.0000 C   0  0  0  0  0  0  0  0  0  0  0  0
   10.7500   10.5375    0.0000 C   0  0  0  0  0  0  0  0  0  0  0  0
   13.5875   11.8625    0.0000 C   0  0  0  0  0  0  0  0  0  0  0  0
   13.7750   -6.6000    0.0000 O   0  0  0  0  0  0  0  0  0  0  0  0
   11.0125   13.6625    0.0000 O   0  0  0  0  0  0  0  0  0  0  0  0
    4.3375   -3.0125    0.0000 C   0  0  0  0  0  0  0  0  0  0  0  0
    5.9125   -5.7500    0.0000 C   0  0  0  0  0  0  0  0  0  0  0  0
   12.0500   15.1250    0.0000 C   0  0  0  0  0  0  0  0  0  0  0  0
    4.3375   -6.6500    0.0000 C   0  0  0  0  0  0  0  0  0  0  0  0
    2.7750   -3.9250    0.0000 C   0  0  0  0  0  0  0  0  0  0  0  0
    2.7750   -5.7500    0.0000 C   0  0  0  0  0  0  0  0  0  0  0  0
  2  1  1  0  0  0  0
  3  2  2  0  0  0  0
  4  1  1  0  0  0  0
  5  4  2  0  0  0  0
  6 10  1  0  0  0  0
  7 15  1  0  0  0  0
  8  6  1  0  0  0  0
  9  4  1  0  0  0  0
 10  7  2  0  0  0  0
 11  2  1  0  0  0  0
 12 23  1  0  0  0  0
 13  7  1  0  0  0  0
 14 12  1  0  0  0  0
 15 14  1  0  0  0  0
 16 21  1  0  0  0  0
 17  8  2  0  0  0  0
 18  1  1  0  0  0  0
 19  8  1  0  0  0  0
 20 12  2  0  0  0  0
 21 13  2  0  0  0  0
 22 18  1  0  0  0  0
 23  9  1  0  0  0  0
 24 11  2  0  0  0  0
 25 11  1  0  0  0  0
 26 22  2  0  0  0  0
 27 28  1  0  0  0  0
 28 25  2  0  0  0  0
 29 24  1  0  0  0  0
 30 13  1  0  0  0  0
 31 27  1  0  0  0  0
 32 19  2  0  0  0  0
 33 19  1  0  0  0  0
 34 31  1  0  0  0  0
 35 33  2  0  0  0  0
 36 32  1  0  0  0  0
 37 35  1  0  0  0  0
  5  3  1  0  0  0  0
 29 27  2  0  0  0  0
 16  6  2  0  0  0  0
 37 36  2  0  0  0  0
M  END
> <#>
1355

> <PLATE>
LAT017

> <ROW>
C

> <COL>
11

> <COORD>
C11

> <LATID>
LAT017C11

> <Supplier>
Chembridge

> <Suplier_CAT#>
7626511

> <Name>
Novel

> <Concentration_(mM)>
2.5

> <IC50_(µM)>
>100

> <Yeast_Active?>
-

> <Pubchem_CID>
990861

$$$$
