
  -ISIS-  08130814242D

 37 40  0  0  0  0  0  0  0  0999 V2000
    3.3667    3.1458    0.0000 C   0  0  0  0  0  0  0  0  0  0  0  0
    3.8125    2.5375    0.0000 N   0  0  3  0  0  0  0  0  0  0  0  0
    3.8125    3.7500    0.0000 N   0  0  0  0  0  0  0  0  0  0  0  0
    4.5250    2.7708    0.0000 C   0  0  0  0  0  0  0  0  0  0  0  0
    2.6167    3.1458    0.0000 C   0  0  0  0  0  0  0  0  0  0  0  0
    4.5250    3.5208    0.0000 N   0  0  0  0  0  0  0  0  0  0  0  0
    2.2417    3.7958    0.0000 C   0  0  0  0  0  0  0  0  0  0  0  0
    8.4000    2.3625    0.0000 C   0  0  0  0  0  0  0  0  0  0  0  0
    5.1292    2.3333    0.0000 S   0  0  0  0  0  0  0  0  0  0  0  0
    2.2417    2.4958    0.0000 C   0  0  0  0  0  0  0  0  0  0  0  0
    3.5792    1.8250    0.0000 C   0  0  0  0  0  0  0  0  0  0  0  0
    6.4250    2.1958    0.0000 C   0  0  0  0  0  0  0  0  0  0  0  0
    9.9292    4.4542    0.0000 C   0  0  0  0  0  0  0  0  0  0  0  0
    9.2417    4.1542    0.0000 N   0  0  0  0  0  0  0  0  0  0  0  0
    9.0042    1.9208    0.0000 C   0  0  0  0  0  0  0  0  0  0  0  0
    8.4792    3.1083    0.0000 C   0  0  0  0  0  0  0  0  0  0  0  0
    7.1042    2.4958    0.0000 N   0  0  0  0  0  0  0  0  0  0  0  0
    7.7167    2.0583    0.0000 C   0  0  0  0  0  0  0  0  0  0  0  0
    9.1625    3.4208    0.0000 C   0  0  0  0  0  0  0  0  0  0  0  0
    1.4917    3.7958    0.0000 C   0  0  0  0  0  0  0  0  0  0  0  0
    6.3417    1.4458    0.0000 O   0  0  0  0  0  0  0  0  0  0  0  0
   10.0042    5.2042    0.0000 O   0  0  0  0  0  0  0  0  0  0  0  0
    5.8167    2.6333    0.0000 C   0  0  0  0  0  0  0  0  0  0  0  0
    9.6917    2.2250    0.0000 C   0  0  0  0  0  0  0  0  0  0  0  0
    2.6167    4.4375    0.0000 Cl  0  0  0  0  0  0  0  0  0  0  0  0
    1.4917    2.4958    0.0000 C   0  0  0  0  0  0  0  0  0  0  0  0
    1.1167    3.1458    0.0000 C   0  0  0  0  0  0  0  0  0  0  0  0
    9.7667    2.9708    0.0000 C   0  0  0  0  0  0  0  0  0  0  0  0
    8.9292    1.1750    0.0000 O   0  0  0  0  0  0  0  0  0  0  0  0
   10.5292    4.0167    0.0000 C   0  0  0  0  0  0  0  0  0  0  0  0
    2.8417    1.6708    0.0000 C   0  0  0  0  0  0  0  0  0  0  0  0
    4.0792    1.2708    0.0000 C   0  0  0  0  0  0  0  0  0  0  0  0
    0.3667    3.1458    0.0000 C   0  0  0  0  0  0  0  0  0  0  0  0
    9.5375    0.7333    0.0000 C   0  0  0  0  0  0  0  0  0  0  0  0
    2.6125    0.9583    0.0000 C   0  0  0  0  0  0  0  0  0  0  0  0
    3.8500    0.5583    0.0000 C   0  0  0  0  0  0  0  0  0  0  0  0
    3.1167    0.3958    0.0000 C   0  0  0  0  0  0  0  0  0  0  0  0
  2  1  1  0  0  0  0
  3  1  2  0  0  0  0
  4  2  1  0  0  0  0
  5  1  1  0  0  0  0
  6  3  1  0  0  0  0
  7  5  2  0  0  0  0
  8 18  1  0  0  0  0
  9  4  1  0  0  0  0
 10  5  1  0  0  0  0
 11  2  1  0  0  0  0
 12 23  1  0  0  0  0
 13 14  1  0  0  0  0
 14 19  1  0  0  0  0
 15  8  2  0  0  0  0
 16  8  1  0  0  0  0
 17 12  1  0  0  0  0
 18 17  1  0  0  0  0
 19 16  2  0  0  0  0
 20  7  1  0  0  0  0
 21 12  2  0  0  0  0
 22 13  2  0  0  0  0
 23  9  1  0  0  0  0
 24 15  1  0  0  0  0
 25  7  1  0  0  0  0
 26 10  2  0  0  0  0
 27 26  1  0  0  0  0
 28 19  1  0  0  0  0
 29 15  1  0  0  0  0
 30 13  1  0  0  0  0
 31 11  1  0  0  0  0
 32 11  2  0  0  0  0
 33 27  1  0  0  0  0
 34 29  1  0  0  0  0
 35 31  2  0  0  0  0
 36 32  1  0  0  0  0
 37 36  2  0  0  0  0
  6  4  2  0  0  0  0
 27 20  2  0  0  0  0
 37 35  1  0  0  0  0
 28 24  2  0  0  0  0
M  END
> <#>
1744

> <PLATE>
LAT022

> <ROW>
H

> <COL>
9

> <COORD>
H09

> <LATID>
LAT022H09

> <Supplier>
Chembridge

> <Suplier_CAT#>
7899903

> <Name>
Novel

> <Concentration_(mM)>
2.5

> <IC50_(µM)>
>100

> <Yeast_Active?>
-

> <Pubchem_CID>
2961665

$$$$
