
  -ISIS-  08130814242D

 31 35  0  0  0  0  0  0  0  0999 V2000
    4.7125   -6.1458    0.0000 C   0  0  0  0  0  0  0  0  0  0  0  0
    6.1365   -6.1458    0.0000 O   0  0  0  0  0  0  0  0  0  0  0  0
    4.7125   -5.3208    0.0000 C   0  0  0  0  0  0  0  0  0  0  0  0
    4.6993   -3.6810    0.0000 C   0  0  1  0  0  0  0  0  0  0  0  0
    3.9917   -4.0981    0.0000 O   0  0  0  0  0  0  0  0  0  0  0  0
    3.9975   -4.9211    0.0000 C   0  0  0  0  0  0  0  0  0  0  0  0
    5.4201   -4.9037    0.0000 C   0  0  0  0  0  0  0  0  0  0  0  0
    6.1348   -5.3239    0.0000 C   0  0  0  0  0  0  0  0  0  0  0  0
    6.8520   -4.9173    0.0000 C   0  0  0  0  0  0  0  0  0  0  0  0
    5.4226   -4.0770    0.0000 C   0  0  1  0  0  0  0  0  0  0  0  0
    6.1461   -3.6688    0.0000 C   0  0  0  0  0  0  0  0  0  0  0  0
    6.8620   -4.0928    0.0000 C   0  0  0  0  0  0  0  0  0  0  0  0
    6.8788   -2.4317    0.0000 C   0  0  0  0  0  0  0  0  0  0  0  0
    6.1514   -2.8390    0.0000 C   0  0  1  0  0  0  0  0  0  0  0  0
    7.5947   -2.8557    0.0000 C   0  0  1  0  0  0  0  0  0  0  0  0
    7.5827   -3.6826    0.0000 C   0  0  3  0  0  0  0  0  0  0  0  0
    8.3654   -3.9496    0.0000 C   0  0  0  0  0  0  0  0  0  0  0  0
    8.8613   -3.2876    0.0000 C   0  0  0  0  0  0  0  0  0  0  0  0
    8.3849   -2.6117    0.0000 C   0  0  0  0  0  0  0  0  0  0  0  0
    7.3750   -2.0542    0.0000 C   0  0  0  0  0  0  0  0  0  0  0  0
    8.6512   -1.8308    0.0000 O   0  0  0  0  0  0  0  0  0  0  0  0
    5.4333   -2.1792    0.0000 O   0  0  0  0  0  0  0  0  0  0  0  0
    4.7142   -1.7605    0.0000 C   0  0  0  0  0  0  0  0  0  0  0  0
    4.7138   -0.9317    0.0000 O   0  0  0  0  0  0  0  0  0  0  0  0
    3.9991   -2.1719    0.0000 C   0  0  0  0  0  0  0  0  0  0  0  0
    5.4167   -3.2500    0.0000 C   0  0  0  0  0  0  0  0  0  0  0  0
    4.2792   -2.9625    0.0000 C   0  0  0  0  0  0  0  0  0  0  0  0
    3.4542   -2.9583    0.0000 O   0  0  0  0  0  0  0  0  0  0  0  0
    2.6292   -2.9542    0.0000 C   0  0  0  0  0  0  0  0  0  0  0  0
    3.2874   -5.3411    0.0000 O   0  0  0  0  0  0  0  0  0  0  0  0
    7.5623   -5.3369    0.0000 O   0  0  0  0  0  0  0  0  0  0  0  0
 15 13  1  0  0  0  0
 13 14  1  0  0  0  0
 15 16  1  0  0  0  0
  5  6  1  0  0  0  0
  7  8  2  0  0  0  0
  3  7  1  0  0  0  0
  3  1  2  0  0  0  0
 16 17  1  0  0  0  0
 17 18  1  0  0  0  0
 18 19  1  0  0  0  0
 19 15  1  0  0  0  0
  2  8  1  0  0  0  0
 15 20  1  1  0  0  0
  7 10  1  0  0  0  0
 19 21  2  0  0  0  0
  8  9  1  0  0  0  0
 14 22  1  6  0  0  0
  9 12  1  0  0  0  0
 11 10  1  0  0  0  0
 23 22  1  0  0  0  0
 23 24  2  0  0  0  0
 11 12  2  0  0  0  0
 23 25  1  0  0  0  0
  1  2  1  0  0  0  0
 10 26  1  1  0  0  0
  3  6  1  0  0  0  0
  4 27  1  6  0  0  0
 10  4  1  0  0  0  0
 27 28  1  0  0  0  0
  4  5  1  0  0  0  0
 28 29  1  0  0  0  0
 11 14  1  0  0  0  0
  6 30  2  0  0  0  0
 12 16  1  0  0  0  0
  9 31  2  0  0  0  0
M  END
> <#>
288

> <PLATE>
LAT004

> <ROW>
H

> <COL>
7

> <COORD>
H07

> <LATID>
LAT004H07

> <Supplier>
Sigma

> <Suplier_CAT#>
W 1628

> <Name>
Wortmannin

> <Concentration_(mM)>
2.5

> <IC50_(µM)>
9.6

> <Yeast_Active?>
+

> <Pubchem_CID>
5691

> <Description>
Potent and specific phosphatidylinositol 3-kinase (P13-K) inhibitor 

$$$$
