
  -ISIS-  08130814242D

 31 34  0  0  0  0  0  0  0  0999 V2000
    2.0042    0.4708    0.0000 N   0  0  3  0  0  0  0  0  0  0  0  0
    1.3000    0.0500    0.0000 C   0  0  3  0  0  0  0  0  0  0  0  0
    2.0042    1.3000    0.0000 C   0  0  0  0  0  0  0  0  0  0  0  0
    0.5792    0.4708    0.0000 C   0  0  0  0  0  0  0  0  0  0  0  0
   -0.1333   -2.4000    0.0000 N   0  3  0  0  0  0  0  0  0  0  0  0
    0.5792    1.2958    0.0000 C   0  0  0  0  0  0  0  0  0  0  0  0
    1.3000   -0.7542    0.0000 C   0  0  0  0  0  0  0  0  0  0  0  0
   -0.1333    0.0625    0.0000 C   0  0  0  0  0  0  0  0  0  0  0  0
    1.2875    1.7125    0.0000 C   0  0  0  0  0  0  0  0  0  0  0  0
    0.5792   -1.9875    0.0000 C   0  0  0  0  0  0  0  0  0  0  0  0
   -0.1333    1.7125    0.0000 C   0  0  0  0  0  0  0  0  0  0  0  0
    0.5792   -1.1667    0.0000 C   0  0  0  0  0  0  0  0  0  0  0  0
   -0.8458    0.4708    0.0000 C   0  0  0  0  0  0  0  0  0  0  0  0
    2.7167    0.0625    0.0000 C   0  0  0  0  0  0  0  0  0  0  0  0
   -0.8458    1.2958    0.0000 C   0  0  0  0  0  0  0  0  0  0  0  0
   -0.8458   -1.9875    0.0000 O   0  5  0  0  0  0  0  0  0  0  0  0
    2.7167    1.7208    0.0000 O   0  0  0  0  0  0  0  0  0  0  0  0
   -0.1333   -3.2292    0.0000 O   0  0  0  0  0  0  0  0  0  0  0  0
    2.7167   -0.7500    0.0000 C   0  0  0  0  0  0  0  0  0  0  0  0
    3.4375    0.4708    0.0000 C   0  0  0  0  0  0  0  0  0  0  0  0
   -1.5500    0.0625    0.0000 O   0  0  0  0  0  0  0  0  0  0  0  0
   -1.5500    1.7125    0.0000 O   0  0  0  0  0  0  0  0  0  0  0  0
    3.4292   -1.1542    0.0000 C   0  0  0  0  0  0  0  0  0  0  0  0
    4.1500    0.0625    0.0000 C   0  0  0  0  0  0  0  0  0  0  0  0
    4.1500   -0.7542    0.0000 C   0  0  0  0  0  0  0  0  0  0  0  0
    2.0042   -1.1667    0.0000 C   0  0  0  0  0  0  0  0  0  0  0  0
    1.3000   -2.4042    0.0000 C   0  0  0  0  0  0  0  0  0  0  0  0
    2.0042   -2.0000    0.0000 C   0  0  0  0  0  0  0  0  0  0  0  0
    4.8542   -1.1667    0.0000 C   0  0  0  0  0  0  0  0  0  0  0  0
   -2.2625    0.4708    0.0000 C   0  0  0  0  0  0  0  0  0  0  0  0
   -2.2625    1.2958    0.0000 C   0  0  0  0  0  0  0  0  0  0  0  0
  2  1  1  0  0  0  0
  3  1  1  0  0  0  0
  4  2  1  0  0  0  0
  5 10  1  0  0  0  0
  6  9  1  0  0  0  0
  7  2  1  0  0  0  0
  8  4  2  0  0  0  0
  9  3  1  0  0  0  0
 10 12  1  0  0  0  0
 11  6  2  0  0  0  0
 12  7  2  0  0  0  0
 13  8  1  0  0  0  0
 14  1  1  0  0  0  0
 15 11  1  0  0  0  0
 16  5  1  0  0  0  0
 17  3  2  0  0  0  0
 18  5  2  0  0  0  0
 19 14  2  0  0  0  0
 20 14  1  0  0  0  0
 21 13  1  0  0  0  0
 22 15  1  0  0  0  0
 23 19  1  0  0  0  0
 24 20  2  0  0  0  0
 25 24  1  0  0  0  0
 26  7  1  0  0  0  0
 27 28  1  0  0  0  0
 28 26  2  0  0  0  0
 29 25  1  0  0  0  0
 30 21  1  0  0  0  0
 31 22  1  0  0  0  0
  4  6  1  0  0  0  0
 25 23  2  0  0  0  0
 13 15  2  0  0  0  0
 27 10  2  0  0  0  0
M  CHG  2   5   1  16  -1
M  END
> <#>
1828

> <PLATE>
LAT023

> <ROW>
D

> <COL>
10

> <COORD>
D10

> <LATID>
LAT023D10

> <Supplier>
Chembridge

> <Suplier_CAT#>
5675212

> <Name>
Novel

> <Sec_Name>
213_E05

> <Concentration_(mM)>
2.5

> <IC50_(µM)>
8

> <Yeast_Active?>
-

> <Pubchem_CID>
2257439

$$$$
