
  -ISIS-  08130814242D

 28 30  0  0  0  0  0  0  0  0999 V2000
   -2.1125   -0.2167    0.0000 C   0  0  0  0  0  0  0  0  0  0  0  0
    0.5500    1.3458    0.0000 C   0  0  0  0  0  0  0  0  0  0  0  0
    1.8500    1.3458    0.0000 N   0  0  0  0  0  0  0  0  0  0  0  0
   -2.7708   -1.3792    0.0000 N   0  0  0  0  0  0  0  0  0  0  0  0
   -0.1333    0.9458    0.0000 C   0  0  0  0  0  0  0  0  0  0  0  0
   -1.4500    0.1833    0.0000 C   0  0  0  0  0  0  0  0  0  0  0  0
   -2.1125   -1.0000    0.0000 N   0  0  0  0  0  0  0  0  0  0  0  0
    1.1875    0.9625    0.0000 N   0  0  0  0  0  0  0  0  0  0  0  0
    0.5500    2.1000    0.0000 O   0  0  0  0  0  0  0  0  0  0  0  0
   -2.7708    0.1625    0.0000 O   0  0  0  0  0  0  0  0  0  0  0  0
    4.4667    1.3458    0.0000 N   0  0  0  0  0  0  0  0  0  0  0  0
   -4.0500   -3.6542    0.0000 N   0  0  0  0  0  0  0  0  0  0  0  0
   -0.1333    0.1833    0.0000 C   0  0  0  0  0  0  0  0  0  0  0  0
   -0.7958    1.3208    0.0000 C   0  0  0  0  0  0  0  0  0  0  0  0
   -0.7958   -0.2167    0.0000 C   0  0  0  0  0  0  0  0  0  0  0  0
   -1.4500    0.9458    0.0000 C   0  0  0  0  0  0  0  0  0  0  0  0
    2.5042    0.9625    0.0000 C   0  0  0  0  0  0  0  0  0  0  0  0
   -2.7708   -2.1375    0.0000 C   0  0  0  0  0  0  0  0  0  0  0  0
    3.1667    1.3458    0.0000 C   0  0  0  0  0  0  0  0  0  0  0  0
   -3.4125   -2.5167    0.0000 C   0  0  0  0  0  0  0  0  0  0  0  0
   -3.4125   -3.2792    0.0000 C   0  0  0  0  0  0  0  0  0  0  0  0
    3.8042    0.9625    0.0000 C   0  0  0  0  0  0  0  0  0  0  0  0
    4.4875    2.1000    0.0000 C   0  0  0  0  0  0  0  0  0  0  0  0
   -4.7333   -3.2792    0.0000 C   0  0  0  0  0  0  0  0  0  0  0  0
    3.1667    2.1000    0.0000 C   0  0  0  0  0  0  0  0  0  0  0  0
   -4.0708   -2.1375    0.0000 C   0  0  0  0  0  0  0  0  0  0  0  0
    3.8292    2.4833    0.0000 C   0  0  0  0  0  0  0  0  0  0  0  0
   -4.7333   -2.5167    0.0000 C   0  0  0  0  0  0  0  0  0  0  0  0
  2  5  1  0  0  0  0
  3  8  1  0  0  0  0
  4  7  1  0  0  0  0
  5 14  1  0  0  0  0
  6  1  1  0  0  0  0
  7  1  1  0  0  0  0
  8  2  1  0  0  0  0
  9  2  2  0  0  0  0
 10  1  2  0  0  0  0
 11 22  2  0  0  0  0
 12 21  1  0  0  0  0
 13 15  1  0  0  0  0
 14 16  2  0  0  0  0
 15  6  2  0  0  0  0
 16  6  1  0  0  0  0
 17  3  2  0  0  0  0
 18  4  2  0  0  0  0
 19 17  1  0  0  0  0
 20 18  1  0  0  0  0
 21 20  2  0  0  0  0
 22 19  1  0  0  0  0
 23 27  2  0  0  0  0
 24 28  1  0  0  0  0
 25 19  2  0  0  0  0
 26 20  1  0  0  0  0
 27 25  1  0  0  0  0
 28 26  2  0  0  0  0
 13  5  2  0  0  0  0
 24 12  2  0  0  0  0
 11 23  1  0  0  0  0
M  END
> <#>
1607

> <PLATE>
LAT021

> <ROW>
G

> <COL>
2

> <COORD>
G02

> <LATID>
LAT021G02

> <Supplier>
Chembridge

> <Suplier_CAT#>
5337428

> <Name>
Novel

> <Concentration_(mM)>
2.5

> <IC50_(µM)>
inactive

> <Yeast_Active?>
-

> <Pubchem_CID>
1378881

$$$$
