
  -ISIS-  08130814242D

 22 24  0  0  0  0  0  0  0  0999 V2000
    1.8417   -0.8917    0.0000 C   0  0  3  0  0  0  0  0  0  0  0  0
    2.1917   -1.5542    0.0000 C   0  0  0  0  0  0  0  0  0  0  0  0
    1.6667   -2.0917    0.0000 N   0  0  3  0  0  0  0  0  0  0  0  0
    1.1042   -1.0167    0.0000 C   0  0  0  0  0  0  0  0  0  0  0  0
    1.0000   -1.7625    0.0000 C   0  0  0  0  0  0  0  0  0  0  0  0
    2.6875   -0.3167    0.0000 C   0  0  0  0  0  0  0  0  0  0  0  0
    3.4042   -0.6917    0.0000 C   0  0  0  0  0  0  0  0  0  0  0  0
    4.0417   -0.2917    0.0000 C   0  0  0  0  0  0  0  0  0  0  0  0
    2.9375   -1.6542    0.0000 O   0  0  0  0  0  0  0  0  0  0  0  0
    4.7042   -0.6375    0.0000 C   0  0  0  0  0  0  0  0  0  0  0  0
    3.4375   -1.3167    0.0000 O   0  0  0  0  0  0  0  0  0  0  0  0
    1.6042   -0.0292    0.0000 O   0  0  0  0  0  0  0  0  0  0  0  0
    1.8000   -2.8292    0.0000 C   0  0  0  0  0  0  0  0  0  0  0  0
    0.5167   -0.5542    0.0000 C   0  0  0  0  0  0  0  0  0  0  0  0
    4.7375   -1.3875    0.0000 O   0  0  0  0  0  0  0  0  0  0  0  0
    0.3042   -2.0417    0.0000 C   0  0  0  0  0  0  0  0  0  0  0  0
    4.0042    0.4583    0.0000 C   0  0  0  0  0  0  0  0  0  0  0  0
    5.3375   -0.2292    0.0000 C   0  0  0  0  0  0  0  0  0  0  0  0
   -0.1833   -0.8292    0.0000 C   0  0  0  0  0  0  0  0  0  0  0  0
   -0.2875   -1.5792    0.0000 C   0  0  0  0  0  0  0  0  0  0  0  0
    4.6375    0.8625    0.0000 C   0  0  0  0  0  0  0  0  0  0  0  0
    5.3042    0.5208    0.0000 C   0  0  0  0  0  0  0  0  0  0  0  0
  2  1  1  0  0  0  0
  3  2  1  0  0  0  0
  4  1  1  0  0  0  0
  5  4  2  0  0  0  0
  6  1  1  0  0  0  0
  7  6  1  0  0  0  0
  8  7  1  0  0  0  0
  9  2  2  0  0  0  0
 10  8  1  0  0  0  0
 11  7  2  0  0  0  0
 12  1  1  0  0  0  0
 13  3  1  0  0  0  0
 14  4  1  0  0  0  0
 15 10  1  0  0  0  0
 16  5  1  0  0  0  0
 17  8  2  0  0  0  0
 18 10  2  0  0  0  0
 19 14  2  0  0  0  0
 20 19  1  0  0  0  0
 21 17  1  0  0  0  0
 22 21  2  0  0  0  0
  5  3  1  0  0  0  0
 20 16  2  0  0  0  0
 18 22  1  0  0  0  0
M  END
> <#>
1256

> <PLATE>
LAT016

> <ROW>
H

> <COL>
8

> <COORD>
H08

> <LATID>
LAT016H08

> <Supplier>
Chembridge

> <Suplier_CAT#>
6495004

> <Name>
Novel

> <Concentration_(mM)>
2.5

> <IC50_(µM)>
>100

> <Yeast_Active?>
-

> <Pubchem_CID>
683271

$$$$
