
  -ISIS-  08130814242D

 12 12  0  0  0  0  0  0  0  0999 V2000
   -2.5127   -2.5205    0.0000 C   0  0  0  0  0  0  0  0  0  0  0  0
   -3.7354   -2.7804    0.0000 C   0  0  0  0  0  0  0  0  0  0  0  0
   -4.3604   -1.6979    0.0000 S   0  0  0  0  0  0  0  0  0  0  0  0
   -3.5240   -0.7689    0.0000 S   0  0  0  0  0  0  0  0  0  0  0  0
   -2.3821   -1.2773    0.0000 C   0  0  3  0  0  0  0  0  0  0  0  0
   -1.2995   -0.6523    0.0000 C   0  0  0  0  0  0  0  0  0  0  0  0
   -0.2170   -1.2773    0.0000 C   0  0  0  0  0  0  0  0  0  0  0  0
    0.8655   -0.6523    0.0000 C   0  0  0  0  0  0  0  0  0  0  0  0
    1.9481   -1.2773    0.0000 C   0  0  0  0  0  0  0  0  0  0  0  0
    3.0306   -0.6523    0.0000 C   0  0  0  0  0  0  0  0  0  0  0  0
    3.0306    0.5977    0.0000 O   0  0  0  0  0  0  0  0  0  0  0  0
    4.1131   -1.2773    0.0000 O   0  0  0  0  0  0  0  0  0  0  0  0
  1  2  1  0  0  0  0
  2  3  1  0  0  0  0
  3  4  1  0  0  0  0
  4  5  1  0  0  0  0
  1  5  1  0  0  0  0
  5  6  1  0  0  0  0
  6  7  1  0  0  0  0
  7  8  1  0  0  0  0
  8  9  1  0  0  0  0
  9 10  1  0  0  0  0
 10 11  2  0  0  0  0
 10 12  1  0  0  0  0
M  END
> <#>
312

> <PLATE>
LAT004

> <ROW>
H

> <COL>
10

> <COORD>
H10

> <LATID>
LAT004H10

> <Supplier>
Sigma

> <Suplier_CAT#>
T-5625

> <Name>
Dl-6,8-Thioctic Acid

> <Concentration_(mM)>
2.5

> <IC50_(µM)>
>100

> <Yeast_Active?>
-

> <Pubchem_CID>
864

> <Comment>
A.K.A Lipoic Acid

> <LATCA_Notes>
Free radical scavenger

$$$$
