
  -ISIS-  08130814242D

 26 31  0  0  0  0  0  0  0  0999 V2000
    3.3125   -1.1167    0.0000 C   0  0  1  0  0  0  0  0  0  0  0  0
    2.4875   -1.1167    0.0000 C   0  0  1  0  0  0  0  0  0  0  0  0
    3.5667   -0.3292    0.0000 C   0  0  1  0  0  0  0  0  0  0  0  0
    2.2292   -1.9042    0.0000 C   0  0  2  0  0  0  0  0  0  0  0  0
    2.9000    0.1500    0.0000 O   0  0  0  0  0  0  0  0  0  0  0  0
    2.9000   -2.3875    0.0000 O   0  0  0  0  0  0  0  0  0  0  0  0
    1.5167   -2.3125    0.0000 C   0  0  0  0  0  0  0  0  0  0  0  0
    4.3292    0.1250    0.0000 C   0  0  0  0  0  0  0  0  0  0  0  0
    2.2375   -0.3292    0.0000 C   0  0  0  0  0  0  0  0  0  0  0  0
    3.5667   -1.9042    0.0000 C   0  0  0  0  0  0  0  0  0  0  0  0
    0.7917   -3.5417    0.0000 C   0  0  0  0  0  0  0  0  0  0  0  0
    5.8500    0.1583    0.0000 C   0  0  0  0  0  0  0  0  0  0  0  0
    1.5042   -3.1292    0.0000 C   0  0  0  0  0  0  0  0  0  0  0  0
    5.0917   -0.3042    0.0000 C   0  0  0  0  0  0  0  0  0  0  0  0
    5.8292    1.0375    0.0000 C   0  0  0  0  0  0  0  0  0  0  0  0
    0.0667   -3.1250    0.0000 C   0  0  0  0  0  0  0  0  0  0  0  0
    0.6167   -4.3542    0.0000 O   0  0  0  0  0  0  0  0  0  0  0  0
    6.6917   -0.1042    0.0000 O   0  0  0  0  0  0  0  0  0  0  0  0
   -0.5500   -3.6792    0.0000 O   0  0  0  0  0  0  0  0  0  0  0  0
    6.6667    1.3250    0.0000 O   0  0  0  0  0  0  0  0  0  0  0  0
    7.2042    0.6208    0.0000 C   0  0  0  0  0  0  0  0  0  0  0  0
   -0.2125   -4.4417    0.0000 C   0  0  0  0  0  0  0  0  0  0  0  0
    0.8042   -1.8875    0.0000 C   0  0  0  0  0  0  0  0  0  0  0  0
    4.3042    1.0083    0.0000 C   0  0  0  0  0  0  0  0  0  0  0  0
    5.0542    1.4625    0.0000 C   0  0  0  0  0  0  0  0  0  0  0  0
    0.0792   -2.2917    0.0000 C   0  0  0  0  0  0  0  0  0  0  0  0
  2  1  1  0  0  0  0
  3  1  1  0  0  0  0
  4  2  1  0  0  0  0
  5  3  1  0  0  0  0
  6 10  1  0  0  0  0
  4  7  1  6  0  0  0
  3  8  1  1  0  0  0
  2  9  1  1  0  0  0
  1 10  1  1  0  0  0
 11 13  2  0  0  0  0
 12 14  1  0  0  0  0
 13  7  1  0  0  0  0
 14  8  2  0  0  0  0
 15 25  1  0  0  0  0
 16 26  2  0  0  0  0
 17 11  1  0  0  0  0
 18 12  1  0  0  0  0
 19 16  1  0  0  0  0
 20 15  1  0  0  0  0
 21 18  1  0  0  0  0
 22 17  1  0  0  0  0
 23  7  2  0  0  0  0
 24  8  1  0  0  0  0
 25 24  2  0  0  0  0
 26 23  1  0  0  0  0
  4  6  1  0  0  0  0
  5  9  1  0  0  0  0
 15 12  2  0  0  0  0
 21 20  1  0  0  0  0
 11 16  1  0  0  0  0
 19 22  1  0  0  0  0
M  END
> <#>
26

> <PLATE>
LAT001

> <ROW>
B

> <COL>
5

> <COORD>
B05

> <LATID>
LAT001B05

> <Supplier>
Microsource

> <Suplier_CAT#>
01504180

> <Name>
Asarinin (-)

> <Concentration_(mM)>
2.5

> <IC50_(µM)>
>100

> <Yeast_Active?>
-

> <Pubchem_CID>
5204

> <Description>
Antitubercular

> <Source>
Natural Product; ex Asarum & Xanthoxylum spp

$$$$
