
  -ISIS-  08130814242D

 17 17  0  0  0  0  0  0  0  0999 V2000
    5.7167    1.5333    0.0000 N   0  0  0  0  0  0  0  0  0  0  0  0
    3.7667    1.1583    0.0000 N   0  0  0  0  0  0  0  0  0  0  0  0
    1.1667    0.4083    0.0000 C   0  0  0  0  0  0  0  0  0  0  0  0
    5.0667    1.1583    0.0000 C   0  0  0  0  0  0  0  0  0  0  0  0
    2.4667    1.1583    0.0000 C   0  0  0  0  0  0  0  0  0  0  0  0
    0.5167    0.0333    0.0000 F   0  0  0  0  0  0  0  0  0  0  0  0
    1.8167    0.0333    0.0000 C   0  0  0  0  0  0  0  0  0  0  0  0
    1.1667    1.1583    0.0000 C   0  0  0  0  0  0  0  0  0  0  0  0
    2.4667    0.4083    0.0000 C   0  0  0  0  0  0  0  0  0  0  0  0
    1.8167    1.5333    0.0000 C   0  0  0  0  0  0  0  0  0  0  0  0
    4.4167    1.5333    0.0000 C   0  0  0  0  0  0  0  0  0  0  0  0
    3.1167    1.5333    0.0000 C   0  0  0  0  0  0  0  0  0  0  0  0
    6.3667    1.1583    0.0000 C   0  0  0  0  0  0  0  0  0  0  0  0
    5.0667    0.4083    0.0000 C   0  0  0  0  0  0  0  0  0  0  0  0
    6.3667    0.4083    0.0000 C   0  0  0  0  0  0  0  0  0  0  0  0
    5.7167    0.0333    0.0000 C   0  0  0  0  0  0  0  0  0  0  0  0
    3.3542    2.3583    0.0000 Cl  0  0  0  0  0  0  0  0  0  0  0  0
  2 11  1  0  0  0  0
  3  8  1  0  0  0  0
  4  1  2  0  0  0  0
  5 12  1  0  0  0  0
  6  3  1  0  0  0  0
  7  9  1  0  0  0  0
  8 10  2  0  0  0  0
  9  5  2  0  0  0  0
 10  5  1  0  0  0  0
 11  4  1  0  0  0  0
 12  2  1  0  0  0  0
 13  1  1  0  0  0  0
 14  4  1  0  0  0  0
 15 13  2  0  0  0  0
 16 15  1  0  0  0  0
 14 16  2  0  0  0  0
  7  3  2  0  0  0  0
M  END
> <#>
1549

> <PLATE>
LAT020

> <ROW>
E

> <COL>
5

> <COORD>
E05

> <LATID>
LAT020E05

> <Supplier>
Chembridge

> <Suplier_CAT#>
7933657

> <Name>
Novel

> <Concentration_(mM)>
2.5

> <IC50_(µM)>
inactive

> <Yeast_Active?>
-

> <Pubchem_CID>
935033

$$$$
