
  -ISIS-  08130814242D

 24 25  0  0  0  0  0  0  0  0999 V2000
   -0.8500    1.5125    0.0000 C   0  0  0  0  0  0  0  0  0  0  0  0
    4.6667    0.8708    0.0000 N   0  3  0  0  0  0  0  0  0  0  0  0
   -1.9500    0.8708    0.0000 C   0  0  0  0  0  0  0  0  0  0  0  0
    0.2500    0.8708    0.0000 C   0  0  0  0  0  0  0  0  0  0  0  0
    3.5500    1.5125    0.0000 C   0  0  0  0  0  0  0  0  0  0  0  0
    1.3667    1.5125    0.0000 C   0  0  0  0  0  0  0  0  0  0  0  0
    2.4667    0.8708    0.0000 C   0  0  0  0  0  0  0  0  0  0  0  0
    4.6667   -0.4042    0.0000 O   0  5  0  0  0  0  0  0  0  0  0  0
   -3.0333    1.5125    0.0000 N   0  0  3  0  0  0  0  0  0  0  0  0
    5.7667    1.5125    0.0000 O   0  0  0  0  0  0  0  0  0  0  0  0
   -1.9500   -0.3875    0.0000 C   0  0  0  0  0  0  0  0  0  0  0  0
    0.2500   -0.4042    0.0000 O   0  0  0  0  0  0  0  0  0  0  0  0
    3.5500    2.7708    0.0000 C   0  0  0  0  0  0  0  0  0  0  0  0
    1.3667    2.7708    0.0000 C   0  0  0  0  0  0  0  0  0  0  0  0
    2.4667    3.3958    0.0000 C   0  0  0  0  0  0  0  0  0  0  0  0
   -3.0333    2.7708    0.0000 C   0  0  0  0  0  0  0  0  0  0  0  0
   -4.1333    0.8708    0.0000 C   0  0  0  0  0  0  0  0  0  0  0  0
   -0.8708   -1.0292    0.0000 C   0  0  0  0  0  0  0  0  0  0  0  0
   -3.0500   -1.0292    0.0000 C   0  0  0  0  0  0  0  0  0  0  0  0
   -5.2333    1.5125    0.0000 C   0  0  0  0  0  0  0  0  0  0  0  0
   -1.9333    3.3958    0.0000 C   0  0  0  0  0  0  0  0  0  0  0  0
   -3.0708   -2.2875    0.0000 C   0  0  0  0  0  0  0  0  0  0  0  0
   -0.8708   -2.2875    0.0000 C   0  0  0  0  0  0  0  0  0  0  0  0
   -1.9500   -2.9292    0.0000 C   0  0  0  0  0  0  0  0  0  0  0  0
  2  5  1  0  0  0  0
  3  1  2  0  0  0  0
  4  1  1  0  0  0  0
  5  7  1  0  0  0  0
  6  4  1  0  0  0  0
  7  6  2  0  0  0  0
  8  2  1  0  0  0  0
  9  3  1  0  0  0  0
 10  2  2  0  0  0  0
 11  3  1  0  0  0  0
 12  4  2  0  0  0  0
 13 15  1  0  0  0  0
 14  6  1  0  0  0  0
 15 14  2  0  0  0  0
 16  9  1  0  0  0  0
 17  9  1  0  0  0  0
 18 11  1  0  0  0  0
 19 11  2  0  0  0  0
 20 17  1  0  0  0  0
 21 16  1  0  0  0  0
 22 19  1  0  0  0  0
 23 18  2  0  0  0  0
 24 22  2  0  0  0  0
  5 13  2  0  0  0  0
 24 23  1  0  0  0  0
M  CHG  2   2   1   8  -1
M  END
> <#>
1707

> <PLATE>
LAT022

> <ROW>
C

> <COL>
5

> <COORD>
C05

> <LATID>
LAT022C05

> <Supplier>
Chembridge

> <Suplier_CAT#>
5213885

> <Name>
Novel

> <Concentration_(mM)>
2.5

> <IC50_(µM)>
49

> <Yeast_Active?>
-

> <Pubchem_CID>
2833939

$$$$
