
  -ISIS-  08130814242D

 20 21  0  0  0  0  0  0  0  0999 V2000
   -0.1958   -2.1500    0.0000 C   0  0  0  0  0  0  0  0  0  0  0  0
    0.5042   -1.7375    0.0000 N   0  0  0  0  0  0  0  0  0  0  0  0
    1.2292   -2.1500    0.0000 N   0  0  0  0  0  0  0  0  0  0  0  0
    3.7042   -0.7042    0.0000 N   0  0  3  0  0  0  0  0  0  0  0  0
   -1.6125   -2.1500    0.0000 S   0  0  0  0  0  0  0  0  0  0  0  0
   -0.9000   -1.7375    0.0000 C   0  0  3  0  0  0  0  0  0  0  0  0
    2.0542   -1.6667    0.0000 C   0  0  0  0  0  0  0  0  0  0  0  0
   -0.1958   -2.9792    0.0000 O   0  0  0  0  0  0  0  0  0  0  0  0
    2.8792   -2.1375    0.0000 C   0  0  0  0  0  0  0  0  0  0  0  0
    2.0542   -0.7042    0.0000 C   0  0  0  0  0  0  0  0  0  0  0  0
    3.7042   -1.6667    0.0000 C   0  0  0  0  0  0  0  0  0  0  0  0
    2.8792   -0.2292    0.0000 C   0  0  0  0  0  0  0  0  0  0  0  0
   -2.3333   -1.7500    0.0000 C   0  0  0  0  0  0  0  0  0  0  0  0
    4.5292   -0.2292    0.0000 C   0  0  0  0  0  0  0  0  0  0  0  0
   -0.9000   -0.9167    0.0000 C   0  0  0  0  0  0  0  0  0  0  0  0
   -2.3333   -0.9167    0.0000 C   0  0  0  0  0  0  0  0  0  0  0  0
   -3.0458   -2.1500    0.0000 C   0  0  0  0  0  0  0  0  0  0  0  0
   -3.7500   -1.7500    0.0000 C   0  0  0  0  0  0  0  0  0  0  0  0
   -3.0458   -0.5000    0.0000 C   0  0  0  0  0  0  0  0  0  0  0  0
   -3.7500   -0.9167    0.0000 C   0  0  0  0  0  0  0  0  0  0  0  0
  2  1  1  0  0  0  0
  3  2  1  0  0  0  0
  4 12  1  0  0  0  0
  5  6  1  0  0  0  0
  6  1  1  0  0  0  0
  7  3  2  0  0  0  0
  8  1  2  0  0  0  0
  9  7  1  0  0  0  0
 10  7  1  0  0  0  0
 11  9  1  0  0  0  0
 12 10  1  0  0  0  0
 13  5  1  0  0  0  0
 14  4  1  0  0  0  0
 15  6  1  0  0  0  0
 16 13  1  0  0  0  0
 17 13  2  0  0  0  0
 18 17  1  0  0  0  0
 19 16  2  0  0  0  0
 20 18  2  0  0  0  0
 11  4  1  0  0  0  0
 20 19  1  0  0  0  0
M  END
> <#>
1800

> <PLATE>
LAT023

> <ROW>
H

> <COL>
6

> <COORD>
H06

> <LATID>
LAT023H06

> <Supplier>
Chembridge

> <Suplier_CAT#>
5609962

> <Name>
Novel

> <Sec_Name>
184_A11

> <Concentration_(mM)>
2.5

> <IC50_(µM)>
56

> <Yeast_Active?>
-

> <Pubchem_CID>
762004

$$$$
