
  -ISIS-  08130814242D

 27 28  0  0  0  0  0  0  0  0999 V2000
   -4.1000    0.7000    0.0000 N   0  0  0  0  0  0  0  0  0  0  0  0
   -3.8833   -0.0167    0.0000 C   0  0  0  0  0  0  0  0  0  0  0  0
   -4.8458    0.9000    0.0000 C   0  0  0  0  0  0  0  0  0  0  0  0
   -1.0458    2.0208    0.0000 C   0  0  0  0  0  0  0  0  0  0  0  0
   -0.0833    1.1458    0.0000 C   0  0  0  0  0  0  0  0  0  0  0  0
   -0.3000    1.8833    0.0000 C   0  0  0  0  0  0  0  0  0  0  0  0
   -5.3625    0.3458    0.0000 C   0  0  0  0  0  0  0  0  0  0  0  0
   -4.4208   -0.5792    0.0000 N   0  0  0  0  0  0  0  0  0  0  0  0
   -1.3458    0.7625    0.0000 C   0  0  0  0  0  0  0  0  0  0  0  0
   -1.5625    1.4833    0.0000 C   0  0  0  0  0  0  0  0  0  0  0  0
   -0.5833    0.5833    0.0000 C   0  0  0  0  0  0  0  0  0  0  0  0
   -5.1625   -0.3792    0.0000 C   0  0  0  0  0  0  0  0  0  0  0  0
   -1.8458    0.2000    0.0000 C   0  0  0  0  0  0  0  0  0  0  0  0
    0.7000    0.9833    0.0000 C   0  0  3  0  0  0  0  0  0  0  0  0
   -1.2833    2.7708    0.0000 C   0  0  3  0  0  0  0  0  0  0  0  0
   -3.1208   -0.2000    0.0000 S   0  0  0  0  0  0  0  0  0  0  0  0
   -5.0625    1.6458    0.0000 O   0  0  0  0  0  0  0  0  0  0  0  0
   -2.6000    0.3625    0.0000 C   0  0  0  0  0  0  0  0  0  0  0  0
   -1.6208   -0.5375    0.0000 O   0  0  0  0  0  0  0  0  0  0  0  0
    0.2000    2.4458    0.0000 O   0  0  0  0  0  0  0  0  0  0  0  0
   -5.7083   -0.9167    0.0000 C   0  0  0  0  0  0  0  0  0  0  0  0
    1.4542    0.8458    0.0000 C   0  0  0  0  0  0  0  0  0  0  0  0
    0.5542    0.2208    0.0000 C   0  0  0  0  0  0  0  0  0  0  0  0
    0.8542    1.7458    0.0000 C   0  0  0  0  0  0  0  0  0  0  0  0
   -2.0208    2.5458    0.0000 C   0  0  0  0  0  0  0  0  0  0  0  0
   -0.5458    3.0000    0.0000 C   0  0  0  0  0  0  0  0  0  0  0  0
   -1.5000    3.5000    0.0000 C   0  0  0  0  0  0  0  0  0  0  0  0
  2  1  2  0  0  0  0
  3  1  1  0  0  0  0
  4 10  2  0  0  0  0
  5 11  1  0  0  0  0
  6  5  2  0  0  0  0
  7  3  1  0  0  0  0
  8  2  1  0  0  0  0
  9 13  1  0  0  0  0
 10  9  1  0  0  0  0
 11  9  2  0  0  0  0
 12  7  2  0  0  0  0
 13 18  1  0  0  0  0
 14  5  1  0  0  0  0
 15  4  1  0  0  0  0
 16  2  1  0  0  0  0
 17  3  2  0  0  0  0
 18 16  1  0  0  0  0
 19 13  2  0  0  0  0
 20  6  1  0  0  0  0
 21 12  1  0  0  0  0
 22 14  1  0  0  0  0
 23 14  1  0  0  0  0
 24 14  1  0  0  0  0
 25 15  1  0  0  0  0
 26 15  1  0  0  0  0
 27 15  1  0  0  0  0
 12  8  1  0  0  0  0
  6  4  1  0  0  0  0
M  END
> <#>
1360

> <PLATE>
LAT017

> <ROW>
H

> <COL>
11

> <COORD>
H11

> <LATID>
LAT017H11

> <Supplier>
Chembridge

> <Suplier_CAT#>
7728281

> <Name>
Novel

> <Concentration_(mM)>
2.5

> <IC50_(µM)>
100

> <Yeast_Active?>
-

> <Pubchem_CID>
1288206

$$$$
