
  -ISIS-  08130814242D

 19 20  0  0  0  0  0  0  0  0999 V2000
    2.9917   -2.0917    0.0000 C   0  0  0  0  0  0  0  0  0  0  0  0
    2.9917   -1.2542    0.0000 C   0  0  0  0  0  0  0  0  0  0  0  0
    3.7042   -2.5042    0.0000 C   0  0  0  0  0  0  0  0  0  0  0  0
    2.2667   -0.8417    0.0000 C   0  0  0  0  0  0  0  0  0  0  0  0
    2.2667   -2.5042    0.0000 C   0  0  0  0  0  0  0  0  0  0  0  0
    4.4250   -2.0875    0.0000 C   0  0  0  0  0  0  0  0  0  0  0  0
    3.7042   -3.3292    0.0000 O   0  0  0  0  0  0  0  0  0  0  0  0
    5.1417   -2.5000    0.0000 O   0  0  0  0  0  0  0  0  0  0  0  0
    1.5542   -1.2625    0.0000 C   0  0  0  0  0  0  0  0  0  0  0  0
    3.7042   -0.8375    0.0000 O   0  0  0  0  0  0  0  0  0  0  0  0
    1.5542   -2.0917    0.0000 C   0  0  0  0  0  0  0  0  0  0  0  0
    5.8542   -2.0792    0.0000 C   0  0  0  0  0  0  0  0  0  0  0  0
    7.2792   -1.2542    0.0000 C   0  0  0  0  0  0  0  0  0  0  0  0
    7.9917   -0.8417    0.0000 Br  0  0  0  0  0  0  0  0  0  0  0  0
    6.5667   -2.4917    0.0000 C   0  0  0  0  0  0  0  0  0  0  0  0
    5.8542   -1.2542    0.0000 C   0  0  0  0  0  0  0  0  0  0  0  0
    6.5667   -0.8417    0.0000 C   0  0  0  0  0  0  0  0  0  0  0  0
    7.2792   -2.0792    0.0000 C   0  0  0  0  0  0  0  0  0  0  0  0
    0.8375   -0.8417    0.0000 O   0  0  0  0  0  0  0  0  0  0  0  0
  2  1  1  0  0  0  0
  3  1  1  0  0  0  0
  4  2  2  0  0  0  0
  5  1  2  0  0  0  0
  6  3  1  0  0  0  0
  7  3  2  0  0  0  0
  8  6  1  0  0  0  0
  9 11  2  0  0  0  0
 10  2  1  0  0  0  0
 11  5  1  0  0  0  0
 12  8  1  0  0  0  0
 13 17  1  0  0  0  0
 14 13  1  0  0  0  0
 15 12  2  0  0  0  0
 16 12  1  0  0  0  0
 17 16  2  0  0  0  0
 18 15  1  0  0  0  0
 19  9  1  0  0  0  0
  9  4  1  0  0  0  0
 13 18  2  0  0  0  0
M  END
> <#>
1357

> <PLATE>
LAT017

> <ROW>
E

> <COL>
11

> <COORD>
E11

> <LATID>
LAT017E11

> <Supplier>
Chembridge

> <Suplier_CAT#>
7658968

> <Name>
Novel

> <Concentration_(mM)>
2.5

> <IC50_(µM)>
6.8

> <Yeast_Active?>
-

> <Pubchem_CID>
899213

$$$$
