
  -ISIS-  08130814242D

 10 10  0  0  0  0  0  0  0  0999 V2000
    5.6852   -3.6723    0.0000 C   0  0  0  0  0  0  0  0  0  0  0  0
    6.5775   -3.6723    0.0000 C   0  0  0  0  0  0  0  0  0  0  0  0
    7.0236   -2.8996    0.0000 C   0  0  0  0  0  0  0  0  0  0  0  0
    7.9160   -2.8996    0.0000 C   0  0  0  0  0  0  0  0  0  0  0  0
    8.3621   -3.6723    0.0000 C   0  0  0  0  0  0  0  0  0  0  0  0
    7.9160   -4.4451    0.0000 C   0  0  0  0  0  0  0  0  0  0  0  0
    7.0236   -4.4451    0.0000 C   0  0  0  0  0  0  0  0  0  0  0  0
    5.2390   -2.8996    0.0000 O   0  0  0  0  0  0  0  0  0  0  0  0
    5.2390   -4.4451    0.0000 O   0  0  0  0  0  0  0  0  0  0  0  0
    8.3621   -2.1268    0.0000 Cl  0  0  0  0  0  0  0  0  0  0  0  0
  1  2  1  0  0  0  0
  2  3  1  0  0  0  0
  3  4  2  0  0  0  0
  4  5  1  0  0  0  0
  5  6  2  0  0  0  0
  6  7  1  0  0  0  0
  2  7  2  0  0  0  0
  1  8  2  0  0  0  0
  1  9  1  0  0  0  0
  4 10  1  0  0  0  0
M  END
> <#>
488

> <PLATE>
LAT007

> <ROW>
H

> <COL>
2

> <COORD>
H02

> <LATID>
LAT007H02

> <Supplier>
Aldrich

> <Suplier_CAT#>
C24604

> <Name>
3-Chlorobenzoic Acid

> <Concentration_(mM)>
2.5

> <IC50_(µM)>
70

> <Yeast_Active?>
-

> <Pubchem_CID>
447

$$$$
