
  -ISIS-  08130814242D

 20 23  0  0  0  0  0  0  0  0999 V2000
   -4.6000    1.6458    0.0000 C   0  0  3  0  0  0  0  0  0  0  0  0
   -0.9125    3.7333    0.0000 C   0  0  0  0  0  0  0  0  0  0  0  0
   -6.1500    5.4167    0.0000 C   0  0  0  0  0  0  0  0  0  0  0  0
   -5.6583   -2.7792    0.0000 C   0  0  0  0  0  0  0  0  0  0  0  0
   -7.6500   -0.8542    0.0000 C   0  0  0  0  0  0  0  0  0  0  0  0
    2.7792    1.5958    0.0000 N   0  0  0  0  0  0  0  0  0  0  0  0
  -10.5667    6.1500    0.0000 C   0  0  3  0  0  0  0  0  0  0  0  0
   -9.8000   -2.3167    0.0000 C   0  0  3  0  0  0  0  0  0  0  0  0
  -11.8833   -0.5375    0.0000 C   0  0  3  0  0  0  0  0  0  0  0  0
    9.9292    9.7500    0.0000 N   0  0  0  0  0  0  0  0  0  0  0  0
   -0.9500    6.6500    0.0000 O   0  0  0  0  0  0  0  0  0  0  0  0
  -11.3000    1.7708    0.0000 C   0  0  0  0  0  0  0  0  0  0  0  0
  -13.4000    3.5167    0.0000 C   0  0  0  0  0  0  0  0  0  0  0  0
  -12.4375   -4.9167    0.0000 C   0  0  0  0  0  0  0  0  0  0  0  0
    6.3292    3.6083    0.0000 C   0  0  0  0  0  0  0  0  0  0  0  0
    6.3292    7.7000    0.0000 C   0  0  0  0  0  0  0  0  0  0  0  0
    9.9292   13.9375    0.0000 C   0  0  0  0  0  0  0  0  0  0  0  0
    2.7292    9.8000    0.0000 C   0  0  0  0  0  0  0  0  0  0  0  0
    6.3292   16.0000    0.0000 C   0  0  0  0  0  0  0  0  0  0  0  0
    2.7792   13.9375    0.0000 C   0  0  0  0  0  0  0  0  0  0  0  0
  2  1  1  0  0  0  0
  3  1  1  0  0  0  0
  4  1  1  0  0  0  0
  5  1  1  0  0  0  0
  6  2  1  0  0  0  0
  7  3  1  0  0  0  0
  8  4  1  0  0  0  0
  9  5  1  0  0  0  0
 10 16  2  0  0  0  0
 11  2  2  0  0  0  0
 12  8  1  0  0  0  0
 13  9  1  0  0  0  0
 14  9  1  0  0  0  0
 15  6  1  0  0  0  0
 16 15  1  0  0  0  0
 17 10  1  0  0  0  0
 18 16  1  0  0  0  0
 19 20  1  0  0  0  0
 20 18  2  0  0  0  0
  8 14  1  0  0  0  0
 13  7  1  0  0  0  0
 12  7  1  0  0  0  0
 19 17  2  0  0  0  0
M  END
> <#>
1401

> <PLATE>
LAT018

> <ROW>
A

> <COL>
7

> <COORD>
A07

> <LATID>
LAT018A07

> <Supplier>
Chembridge

> <Suplier_CAT#>
5245298

> <Name>
Novel

> <Concentration_(mM)>
2.5

> <IC50_(µM)>
inactive

> <Yeast_Active?>
-

> <Pubchem_CID>
2836986

$$$$
