
  -ISIS-  08130814242D

 16 17  0  0  0  0  0  0  0  0999 V2000
    6.2292   -4.9500    0.0000 N   0  0  0  0  0  0  0  0  0  0  0  0
    5.4792   -4.9500    0.0000 C   0  0  0  0  0  0  0  0  0  0  0  0
    5.8542   -3.8000    0.0000 C   0  0  0  0  0  0  0  0  0  0  0  0
    6.4542   -4.2375    0.0000 C   0  0  0  0  0  0  0  0  0  0  0  0
    5.2500   -4.2292    0.0000 S   0  0  0  0  0  0  0  0  0  0  0  0
    5.8542   -3.0500    0.0000 C   0  0  0  0  0  0  0  0  0  0  0  0
    5.2042   -2.6667    0.0000 C   0  0  0  0  0  0  0  0  0  0  0  0
    5.0375   -5.5500    0.0000 N   0  0  0  0  0  0  0  0  0  0  0  0
    7.1792   -4.0042    0.0000 O   0  0  0  0  0  0  0  0  0  0  0  0
    5.2042   -1.9167    0.0000 C   0  0  0  0  0  0  0  0  0  0  0  0
    4.5500   -3.0500    0.0000 C   0  0  0  0  0  0  0  0  0  0  0  0
    4.5500   -1.5375    0.0000 C   0  0  0  0  0  0  0  0  0  0  0  0
    3.9042   -2.6667    0.0000 C   0  0  0  0  0  0  0  0  0  0  0  0
    3.9042   -1.9167    0.0000 C   0  0  0  0  0  0  0  0  0  0  0  0
    5.8542   -1.5375    0.0000 C   0  0  0  0  0  0  0  0  0  0  0  0
    3.2542   -3.0500    0.0000 C   0  0  0  0  0  0  0  0  0  0  0  0
  2  1  1  0  0  0  0
  3  4  1  0  0  0  0
  4  1  1  0  0  0  0
  5  2  1  0  0  0  0
  6  3  2  0  0  0  0
  7  6  1  0  0  0  0
  8  2  2  0  0  0  0
  9  4  2  0  0  0  0
 10  7  2  0  0  0  0
 11  7  1  0  0  0  0
 12 10  1  0  0  0  0
 13 11  2  0  0  0  0
 14 13  1  0  0  0  0
 15 10  1  0  0  0  0
 16 13  1  0  0  0  0
  3  5  1  0  0  0  0
 12 14  2  0  0  0  0
M  END
> <#>
2025

> <PLATE>
LAT026

> <ROW>
A

> <COL>
5

> <COORD>
A05

> <LATID>
LAT026A05

> <Supplier>
Chembridge

> <Suplier_CAT#>
5675688

> <Sec_Name>
213_E02

> <Concentration_(mM)>
2.5

> <IC50_(µM)>
inactive

> <Yeast_Active?>
-

> <Pubchem_CID>
NULL

$$$$
