
  -ISIS-  08130814242D

 22 25  0  0  0  0  0  0  0  0999 V2000
   -2.0500   -1.0667    0.0000 C   0  0  0  0  0  0  0  0  0  0  0  0
   -2.0500   -0.1042    0.0000 C   0  0  0  0  0  0  0  0  0  0  0  0
   -1.1500   -1.3500    0.0000 N   0  0  0  0  0  0  0  0  0  0  0  0
   -0.5958   -0.5667    0.0000 C   0  0  0  0  0  0  0  0  0  0  0  0
   -1.1500    0.1958    0.0000 N   0  0  3  0  0  0  0  0  0  0  0  0
   -2.8958   -1.5500    0.0000 N   0  0  3  0  0  0  0  0  0  0  0  0
   -3.7333   -1.0667    0.0000 C   0  0  0  0  0  0  0  0  0  0  0  0
   -3.7333   -0.1042    0.0000 N   0  0  0  0  0  0  0  0  0  0  0  0
   -2.8958    0.3958    0.0000 C   0  0  0  0  0  0  0  0  0  0  0  0
    0.3292   -0.2667    0.0000 O   0  0  0  0  0  0  0  0  0  0  0  0
   -0.5708    0.9708    0.0000 C   0  0  0  0  0  0  0  0  0  0  0  0
    0.3500    0.6708    0.0000 C   0  0  3  0  0  0  0  0  0  0  0  0
   -4.5708   -1.5500    0.0000 O   0  0  0  0  0  0  0  0  0  0  0  0
   -2.8958    1.3500    0.0000 O   0  0  0  0  0  0  0  0  0  0  0  0
    1.1292    1.2125    0.0000 C   0  0  0  0  0  0  0  0  0  0  0  0
   -2.8958   -2.5042    0.0000 C   0  0  0  0  0  0  0  0  0  0  0  0
    1.9875    0.7708    0.0000 C   0  0  0  0  0  0  0  0  0  0  0  0
    1.0667    2.1708    0.0000 C   0  0  0  0  0  0  0  0  0  0  0  0
    2.7292    2.2708    0.0000 C   0  0  0  0  0  0  0  0  0  0  0  0
    1.8667    2.6958    0.0000 C   0  0  0  0  0  0  0  0  0  0  0  0
    2.7875    1.3125    0.0000 C   0  0  0  0  0  0  0  0  0  0  0  0
    3.5042    2.8125    0.0000 Cl  0  0  0  0  0  0  0  0  0  0  0  0
  2  1  2  0  0  0  0
  3  1  1  0  0  0  0
  4  3  2  0  0  0  0
  5  2  1  0  0  0  0
  6  1  1  0  0  0  0
  7  6  1  0  0  0  0
  8  7  1  0  0  0  0
  9  2  1  0  0  0  0
 10  4  1  0  0  0  0
 11  5  1  0  0  0  0
 12 10  1  0  0  0  0
 13  7  2  0  0  0  0
 14  9  2  0  0  0  0
 15 12  1  0  0  0  0
 16  6  1  0  0  0  0
 17 15  2  0  0  0  0
 18 15  1  0  0  0  0
 19 20  1  0  0  0  0
 20 18  2  0  0  0  0
 21 17  1  0  0  0  0
 22 19  1  0  0  0  0
  9  8  1  0  0  0  0
  5  4  1  0  0  0  0
 12 11  1  0  0  0  0
 19 21  2  0  0  0  0
M  END
> <#>
1842

> <PLATE>
LAT024

> <ROW>
B

> <COL>
2

> <COORD>
B02

> <LATID>
LAT024B02

> <Supplier>
Chembridge

> <Suplier_CAT#>
5705890

> <Name>
Novel

> <Sec_Name>
224_G03

> <Concentration_(mM)>
2.5

> <IC50_(µM)>
8

> <Yeast_Active?>
-

> <Pubchem_CID>
677505

$$$$
