
  -ISIS-  08130814242D

 15 15  0  0  0  0  0  0  0  0999 V2000
    2.3667   -2.0000    0.0000 C   0  0  0  0  0  0  0  0  0  0  0  0
    1.7167   -2.3667    0.0000 N   0  3  0  0  0  0  0  0  0  0  0  0
    3.0167   -2.3750    0.0000 C   0  0  0  0  0  0  0  0  0  0  0  0
    3.6667   -2.0000    0.0000 C   0  0  0  0  0  0  0  0  0  0  0  0
    2.3667   -1.2417    0.0000 C   0  0  0  0  0  0  0  0  0  0  0  0
    1.0667   -2.0000    0.0000 O   0  5  0  0  0  0  0  0  0  0  0  0
    1.7167   -3.1250    0.0000 O   0  0  0  0  0  0  0  0  0  0  0  0
    3.6667   -1.2417    0.0000 C   0  0  0  0  0  0  0  0  0  0  0  0
    3.0167   -0.8667    0.0000 C   0  0  0  0  0  0  0  0  0  0  0  0
    2.3667    0.2583    0.0000 O   0  0  0  0  0  0  0  0  0  0  0  0
    3.0167   -3.1167    0.0000 O   0  0  0  0  0  0  0  0  0  0  0  0
    3.0167   -0.1167    0.0000 C   0  0  0  0  0  0  0  0  0  0  0  0
    4.3167   -2.3750    0.0000 O   0  0  0  0  0  0  0  0  0  0  0  0
    4.3167   -3.1250    0.0000 C   0  0  0  0  0  0  0  0  0  0  0  0
    4.9667   -3.5000    0.0000 C   0  0  0  0  0  0  0  0  0  0  0  0
  2  1  1  0  0  0  0
  3  1  2  0  0  0  0
  4  3  1  0  0  0  0
  5  1  1  0  0  0  0
  6  2  1  0  0  0  0
  7  2  2  0  0  0  0
  8  9  1  0  0  0  0
  9  5  2  0  0  0  0
 10 12  2  0  0  0  0
 11  3  1  0  0  0  0
 12  9  1  0  0  0  0
 13  4  1  0  0  0  0
 14 13  1  0  0  0  0
 15 14  1  0  0  0  0
  8  4  2  0  0  0  0
M  CHG  2   2   1   6  -1
M  END
> <#>
1086

> <PLATE>
LAT014

> <ROW>
F

> <COL>
7

> <COORD>
F07

> <LATID>
LAT014F07

> <Supplier>
Chembridge

> <Suplier_CAT#>
6046412

> <Name>
Novel

> <Concentration_(mM)>
2.5

> <IC50_(µM)>
60

> <Yeast_Active?>
-

> <Pubchem_CID>
584878

$$$$
