
  -ISIS-  08130814242D

 41 46  0  0  0  0  0  0  0  0999 V2000
   -2.3208    1.1000    0.0000 N   0  0  3  0  0  0  0  0  0  0  0  0
   -2.3458    1.7833    0.0000 C   0  0  0  0  0  0  0  0  0  0  0  0
   -2.9208    0.7625    0.0000 C   0  0  0  0  0  0  0  0  0  0  0  0
    0.6792    0.8208    0.0000 N   0  0  3  0  0  0  0  0  0  0  0  0
    1.1542    1.3000    0.0000 C   0  0  0  0  0  0  0  0  0  0  0  0
   -2.9458    2.1208    0.0000 C   0  0  0  0  0  0  0  0  0  0  0  0
   -3.5208    1.1000    0.0000 C   0  0  0  0  0  0  0  0  0  0  0  0
    0.8792    1.9208    0.0000 N   0  0  0  0  0  0  0  0  0  0  0  0
    0.2000    1.8458    0.0000 N   0  0  0  0  0  0  0  0  0  0  0  0
   -3.5208    1.7833    0.0000 C   0  0  0  0  0  0  0  0  0  0  0  0
    0.0542    1.1625    0.0000 C   0  0  0  0  0  0  0  0  0  0  0  0
    1.8542    1.1833    0.0000 S   0  0  0  0  0  0  0  0  0  0  0  0
    0.7000    0.1458    0.0000 C   0  0  0  0  0  0  0  0  0  0  0  0
    2.9542    1.6000    0.0000 C   0  0  0  0  0  0  0  0  0  0  0  0
   -2.9208    0.0625    0.0000 O   0  0  0  0  0  0  0  0  0  0  0  0
   -1.7458    2.1208    0.0000 O   0  0  0  0  0  0  0  0  0  0  0  0
    3.2000    0.9625    0.0000 N   0  0  0  0  0  0  0  0  0  0  0  0
    3.6167   -0.3167    0.0000 N   0  0  0  0  0  0  0  0  0  0  0  0
    3.4000    2.1208    0.0000 O   0  0  0  0  0  0  0  0  0  0  0  0
   -4.1208    2.1208    0.0000 C   0  0  0  0  0  0  0  0  0  0  0  0
   -1.7208    0.7625    0.0000 C   0  0  0  0  0  0  0  0  0  0  0  0
    2.3000    1.7208    0.0000 C   0  0  0  0  0  0  0  0  0  0  0  0
    2.9542   -0.2000    0.0000 C   0  0  0  0  0  0  0  0  0  0  0  0
   -4.1000    0.7625    0.0000 C   0  0  0  0  0  0  0  0  0  0  0  0
   -2.9458    2.8000    0.0000 C   0  0  0  0  0  0  0  0  0  0  0  0
    2.7375    0.4458    0.0000 C   0  0  0  0  0  0  0  0  0  0  0  0
   -0.5208    0.8000    0.0000 C   0  0  0  0  0  0  0  0  0  0  0  0
   -1.1458    1.1208    0.0000 C   0  0  0  0  0  0  0  0  0  0  0  0
   -4.7208    1.1000    0.0000 C   0  0  0  0  0  0  0  0  0  0  0  0
   -3.5208    3.1458    0.0000 C   0  0  0  0  0  0  0  0  0  0  0  0
    3.8375   -0.9542    0.0000 C   0  0  0  0  0  0  0  0  0  0  0  0
   -4.7208    1.7833    0.0000 C   0  0  0  0  0  0  0  0  0  0  0  0
   -4.1458    2.8000    0.0000 C   0  0  0  0  0  0  0  0  0  0  0  0
    0.1000   -0.2167    0.0000 C   0  0  0  0  0  0  0  0  0  0  0  0
    1.3000   -0.2000    0.0000 C   0  0  0  0  0  0  0  0  0  0  0  0
    2.5167   -0.7000    0.0000 C   0  0  0  0  0  0  0  0  0  0  0  0
    3.4000   -1.4542    0.0000 C   0  0  0  0  0  0  0  0  0  0  0  0
    0.1167   -0.9000    0.0000 C   0  0  0  0  0  0  0  0  0  0  0  0
    1.3167   -0.8792    0.0000 C   0  0  0  0  0  0  0  0  0  0  0  0
    2.7375   -1.3375    0.0000 C   0  0  0  0  0  0  0  0  0  0  0  0
    0.7375   -1.2375    0.0000 C   0  0  0  0  0  0  0  0  0  0  0  0
  2  1  1  0  0  0  0
  3  1  1  0  0  0  0
  4 11  1  0  0  0  0
  5  4  1  0  0  0  0
  6  2  1  0  0  0  0
  7  3  1  0  0  0  0
  8  9  1  0  0  0  0
  9 11  2  0  0  0  0
 10  7  1  0  0  0  0
 11 27  1  0  0  0  0
 12  5  1  0  0  0  0
 13  4  1  0  0  0  0
 14 22  1  0  0  0  0
 15  3  2  0  0  0  0
 16  2  2  0  0  0  0
 17 14  1  0  0  0  0
 18 23  1  0  0  0  0
 19 14  2  0  0  0  0
 20 10  2  0  0  0  0
 21  1  1  0  0  0  0
 22 12  1  0  0  0  0
 23 26  1  0  0  0  0
 24  7  2  0  0  0  0
 25  6  2  0  0  0  0
 26 17  1  0  0  0  0
 27 28  1  0  0  0  0
 28 21  1  0  0  0  0
 29 24  1  0  0  0  0
 30 25  1  0  0  0  0
 31 18  2  0  0  0  0
 32 29  2  0  0  0  0
 33 20  1  0  0  0  0
 34 13  2  0  0  0  0
 35 13  1  0  0  0  0
 36 23  2  0  0  0  0
 37 40  2  0  0  0  0
 38 34  1  0  0  0  0
 39 35  2  0  0  0  0
 40 36  1  0  0  0  0
 41 39  1  0  0  0  0
  6 10  1  0  0  0  0
 20 32  1  0  0  0  0
 30 33  2  0  0  0  0
  5  8  2  0  0  0  0
 38 41  2  0  0  0  0
 37 31  1  0  0  0  0
M  END
> <#>
1463

> <PLATE>
LAT019

> <ROW>
G

> <COL>
4

> <COORD>
G04

> <LATID>
LAT019G04

> <Supplier>
Chembridge

> <Suplier_CAT#>
6072667

> <Name>
Novel

> <Concentration_(mM)>
2.5

> <IC50_(µM)>
100

> <Yeast_Active?>
-

> <Pubchem_CID>
2884519

$$$$
