
  -ISIS-  08130814242D

 29 32  0  0  0  0  0  0  0  0999 V2000
    3.1000    0.3708    0.0000 N   0  0  0  0  0  0  0  0  0  0  0  0
    2.4875    0.1708    0.0000 N   0  0  3  0  0  0  0  0  0  0  0  0
    3.4542   -0.0875    0.0000 N   0  0  0  0  0  0  0  0  0  0  0  0
    2.5000   -0.4375    0.0000 C   0  0  0  0  0  0  0  0  0  0  0  0
    1.4000    0.2625    0.0000 C   0  0  0  0  0  0  0  0  0  0  0  0
    1.9500    0.5458    0.0000 C   0  0  0  0  0  0  0  0  0  0  0  0
    3.1042   -0.6167    0.0000 C   0  0  0  0  0  0  0  0  0  0  0  0
   -0.7708    0.4000    0.0000 C   0  0  0  0  0  0  0  0  0  0  0  0
   -1.3125    0.7458    0.0000 C   0  0  0  0  0  0  0  0  0  0  0  0
   -0.2125    0.6833    0.0000 C   0  0  0  0  0  0  0  0  0  0  0  0
    1.3500   -0.3375    0.0000 C   0  0  0  0  0  0  0  0  0  0  0  0
    0.8667    0.6125    0.0000 C   0  0  0  0  0  0  0  0  0  0  0  0
   -1.8458    0.4708    0.0000 C   0  0  0  0  0  0  0  0  0  0  0  0
   -1.2500    1.3708    0.0000 O   0  0  0  0  0  0  0  0  0  0  0  0
    0.3000    0.3625    0.0000 C   0  0  0  0  0  0  0  0  0  0  0  0
    0.7875   -0.5875    0.0000 C   0  0  0  0  0  0  0  0  0  0  0  0
   -1.8958   -0.1292    0.0000 C   0  0  0  0  0  0  0  0  0  0  0  0
   -2.3625    0.8208    0.0000 C   0  0  0  0  0  0  0  0  0  0  0  0
   -2.9625   -0.0500    0.0000 C   0  0  0  0  0  0  0  0  0  0  0  0
    0.2542   -0.2292    0.0000 C   0  0  0  0  0  0  0  0  0  0  0  0
   -2.9458    0.5458    0.0000 C   0  0  0  0  0  0  0  0  0  0  0  0
   -2.4500   -0.4167    0.0000 C   0  0  0  0  0  0  0  0  0  0  0  0
    1.8792   -0.6875    0.0000 O   0  0  0  0  0  0  0  0  0  0  0  0
   -3.5500   -0.3292    0.0000 O   0  0  0  0  0  0  0  0  0  0  0  0
    2.0500   -0.8667    0.0000 C   0  0  0  0  0  0  0  0  0  0  0  0
    3.2542   -1.2167    0.0000 C   0  0  0  0  0  0  0  0  0  0  0  0
    1.8167   -1.3167    0.0000 C   0  0  0  0  0  0  0  0  0  0  0  0
    2.1875   -1.5000    0.0000 C   0  0  0  0  0  0  0  0  0  0  0  0
    2.7875   -1.6542    0.0000 C   0  0  0  0  0  0  0  0  0  0  0  0
  2  1  1  0  0  0  0
  3  1  2  0  0  0  0
  4  2  1  0  0  0  0
  5  6  1  0  0  0  0
  6  2  1  0  0  0  0
  7  3  1  0  0  0  0
  8 10  2  0  0  0  0
  9  8  1  0  0  0  0
 10 15  1  0  0  0  0
 11  5  1  0  0  0  0
 12  5  2  0  0  0  0
 13  9  1  0  0  0  0
 14  9  2  0  0  0  0
 15 12  1  0  0  0  0
 16 11  2  0  0  0  0
 17 13  2  0  0  0  0
 18 13  1  0  0  0  0
 19 21  1  0  0  0  0
 20 15  2  0  0  0  0
 21 18  2  0  0  0  0
 22 17  1  0  0  0  0
 23 11  1  0  0  0  0
 24 19  1  0  0  0  0
 25  4  1  0  0  0  0
 26  7  1  0  0  0  0
 27 23  1  0  0  0  0
 28 25  2  0  0  0  0
 29 26  2  0  0  0  0
  4  7  2  0  0  0  0
 28 29  1  0  0  0  0
 20 16  1  0  0  0  0
 22 19  2  0  0  0  0
M  END
> <#>
1242

> <PLATE>
LAT016

> <ROW>
B

> <COL>
7

> <COORD>
B07

> <LATID>
LAT016B07

> <Supplier>
Chembridge

> <Suplier_CAT#>
6141153

> <Name>
Novel

> <Concentration_(mM)>
2.5

> <IC50_(µM)>
inactive

> <Yeast_Active?>
-

> <Pubchem_CID>
2887832

$$$$
