
  -ISIS-  08130814242D

 20 22  0  0  0  0  0  0  0  0999 V2000
   -1.4958    1.4625    0.0000 C   0  0  0  0  0  0  0  0  0  0  0  0
   -1.9958    2.1625    0.0000 N   0  0  0  0  0  0  0  0  0  0  0  0
   -1.9958    0.7458    0.0000 N   0  0  0  0  0  0  0  0  0  0  0  0
   -2.8125    1.9000    0.0000 C   0  0  0  0  0  0  0  0  0  0  0  0
   -2.8125    1.0208    0.0000 C   0  0  0  0  0  0  0  0  0  0  0  0
   -0.6125    1.4625    0.0000 S   0  0  0  0  0  0  0  0  0  0  0  0
    2.4875   -0.8375    0.0000 C   0  0  0  0  0  0  0  0  0  0  0  0
    2.0500   -0.0792    0.0000 C   0  0  0  0  0  0  0  0  0  0  0  0
    2.0292   -1.6000    0.0000 F   0  0  0  0  0  0  0  0  0  0  0  0
    1.1667   -0.0792    0.0000 O   0  0  0  0  0  0  0  0  0  0  0  0
   -3.5708    2.3458    0.0000 C   0  0  0  0  0  0  0  0  0  0  0  0
   -3.5708    0.5833    0.0000 C   0  0  0  0  0  0  0  0  0  0  0  0
   -0.1708    0.7000    0.0000 C   0  0  0  0  0  0  0  0  0  0  0  0
    3.3667   -0.8375    0.0000 C   0  0  0  0  0  0  0  0  0  0  0  0
    2.4875    0.7000    0.0000 C   0  0  0  0  0  0  0  0  0  0  0  0
    0.7292    0.7000    0.0000 C   0  0  0  0  0  0  0  0  0  0  0  0
   -4.3333    1.9000    0.0000 C   0  0  0  0  0  0  0  0  0  0  0  0
   -4.3333    1.0208    0.0000 C   0  0  0  0  0  0  0  0  0  0  0  0
    3.8042   -0.0792    0.0000 C   0  0  0  0  0  0  0  0  0  0  0  0
    3.3667    0.7000    0.0000 C   0  0  0  0  0  0  0  0  0  0  0  0
  2  1  2  0  0  0  0
  3  1  1  0  0  0  0
  4  2  1  0  0  0  0
  5  3  1  0  0  0  0
  6  1  1  0  0  0  0
  7  8  1  0  0  0  0
  8 10  1  0  0  0  0
  9  7  1  0  0  0  0
 10 16  1  0  0  0  0
 11  4  1  0  0  0  0
 12  5  1  0  0  0  0
 13  6  1  0  0  0  0
 14  7  2  0  0  0  0
 15  8  2  0  0  0  0
 16 13  1  0  0  0  0
 17 11  2  0  0  0  0
 18 12  2  0  0  0  0
 19 20  2  0  0  0  0
 20 15  1  0  0  0  0
  5  4  2  0  0  0  0
 17 18  1  0  0  0  0
 14 19  1  0  0  0  0
M  END
> <#>
875

> <PLATE>
LAT011

> <ROW>
C

> <COL>
11

> <COORD>
C11

> <LATID>
LAT011C11

> <Supplier>
Chembridge

> <Suplier_CAT#>
5670171

> <Name>
Novel

> <Sec_Name>
210_G05

> <Concentration_(mM)>
2.5

> <IC50_(µM)>
25

> <Yeast_Active?>
-

> <Pubchem_CID>
NULL

$$$$
