
  -ISIS-  08130814242D

 22 23  0  0  0  0  0  0  0  0999 V2000
    3.8625    3.7333    0.0000 C   0  0  0  0  0  0  0  0  0  0  0  0
    5.1542    2.9875    0.0000 C   0  0  0  0  0  0  0  0  0  0  0  0
    2.5667    2.9708    0.0000 C   0  0  0  0  0  0  0  0  0  0  0  0
    6.4417    3.7458    0.0000 C   0  0  0  0  0  0  0  0  0  0  0  0
    7.7375    2.9958    0.0000 C   0  0  0  0  0  0  0  0  0  0  0  0
   11.1167    0.9500    0.0000 C   0  0  3  0  0  0  0  0  0  0  0  0
   10.3000    1.5000    0.0000 C   0  0  0  0  0  0  0  0  0  0  0  0
    1.2917    3.7125    0.0000 C   0  0  0  0  0  0  0  0  0  0  0  0
    3.8542    5.2125    0.0000 O   0  0  0  0  0  0  0  0  0  0  0  0
    6.4375    5.2292    0.0000 O   0  0  0  0  0  0  0  0  0  0  0  0
    7.7292    1.5125    0.0000 C   0  0  0  0  0  0  0  0  0  0  0  0
    9.0167    3.7333    0.0000 C   0  0  0  0  0  0  0  0  0  0  0  0
   10.3042    2.9958    0.0000 C   0  0  0  0  0  0  0  0  0  0  0  0
    9.0042    0.7625    0.0000 C   0  0  0  0  0  0  0  0  0  0  0  0
    1.2792    5.2000    0.0000 O   0  0  0  0  0  0  0  0  0  0  0  0
    2.5667    1.4750    0.0000 C   0  0  0  0  0  0  0  0  0  0  0  0
   11.9667    0.4625    0.0000 C   0  0  0  0  0  0  0  0  0  0  0  0
   10.8625    0.0000    0.0000 C   0  0  0  0  0  0  0  0  0  0  0  0
   11.8125    1.6500    0.0000 C   0  0  0  0  0  0  0  0  0  0  0  0
    0.0042    2.9833    0.0000 C   0  0  0  0  0  0  0  0  0  0  0  0
    1.2792    0.7458    0.0000 C   0  0  0  0  0  0  0  0  0  0  0  0
    0.0000    1.4875    0.0000 C   0  0  0  0  0  0  0  0  0  0  0  0
  2  1  1  0  0  0  0
  3  1  1  0  0  0  0
  4  2  1  0  0  0  0
  5  4  1  0  0  0  0
  6  7  1  0  0  0  0
  7 13  1  0  0  0  0
  8  3  2  0  0  0  0
  9  1  2  0  0  0  0
 10  4  2  0  0  0  0
 11  5  2  0  0  0  0
 12  5  1  0  0  0  0
 13 12  2  0  0  0  0
 14 11  1  0  0  0  0
 15  8  1  0  0  0  0
 16  3  1  0  0  0  0
 17  6  1  0  0  0  0
 18  6  1  0  0  0  0
 19  6  1  0  0  0  0
 20  8  1  0  0  0  0
 21 16  2  0  0  0  0
 22 21  1  0  0  0  0
 22 20  2  0  0  0  0
  7 14  2  0  0  0  0
M  END
> <#>
1237

> <PLATE>
LAT016

> <ROW>
E

> <COL>
6

> <COORD>
E06

> <LATID>
LAT016E06

> <Supplier>
Chembridge

> <Suplier_CAT#>
5962302

> <Name>
Novel

> <Concentration_(mM)>
2.5

> <IC50_(µM)>
inactive

> <Yeast_Active?>
-

> <Pubchem_CID>
1358695

$$$$
