
  -ISIS-  08130814242D

 27 28  0  0  0  0  0  0  0  0999 V2000
    5.7542   -4.3042    0.0000 C   0  0  0  0  0  0  0  0  0  0  0  0
    6.4042   -3.9500    0.0000 C   0  0  0  0  0  0  0  0  0  0  0  0
    5.1042   -3.9500    0.0000 C   0  0  0  0  0  0  0  0  0  0  0  0
    7.7042   -3.9500    0.0000 N   0  0  0  0  0  0  0  0  0  0  0  0
    1.2167   -3.9500    0.0000 C   0  0  0  0  0  0  0  0  0  0  0  0
    1.2167   -3.2000    0.0000 C   0  0  0  0  0  0  0  0  0  0  0  0
    7.0542   -4.3042    0.0000 N   0  0  0  0  0  0  0  0  0  0  0  0
    1.8667   -4.3042    0.0000 C   0  0  0  0  0  0  0  0  0  0  0  0
    9.6542   -2.8042    0.0000 N   0  0  0  0  0  0  0  0  0  0  0  0
    5.1042   -3.2000    0.0000 O   0  0  0  0  0  0  0  0  0  0  0  0
    6.4042   -3.2000    0.0000 O   0  0  0  0  0  0  0  0  0  0  0  0
    8.3542   -4.3042    0.0000 C   0  0  0  0  0  0  0  0  0  0  0  0
    4.4542   -4.3042    0.0000 N   0  0  0  0  0  0  0  0  0  0  0  0
    9.0042   -3.9500    0.0000 C   0  0  0  0  0  0  0  0  0  0  0  0
    1.8667   -2.8042    0.0000 C   0  0  0  0  0  0  0  0  0  0  0  0
    2.5167   -3.9500    0.0000 C   0  0  0  0  0  0  0  0  0  0  0  0
    2.5167   -3.2000    0.0000 C   0  0  0  0  0  0  0  0  0  0  0  0
    0.5667   -4.3042    0.0000 O   0  0  0  0  0  0  0  0  0  0  0  0
    0.5667   -2.8042    0.0000 O   0  0  0  0  0  0  0  0  0  0  0  0
    3.8042   -3.9500    0.0000 C   0  0  0  0  0  0  0  0  0  0  0  0
    9.0042   -3.2000    0.0000 C   0  0  0  0  0  0  0  0  0  0  0  0
   10.3042   -3.2000    0.0000 C   0  0  0  0  0  0  0  0  0  0  0  0
    3.1667   -4.3042    0.0000 C   0  0  0  0  0  0  0  0  0  0  0  0
    9.6542   -4.3042    0.0000 C   0  0  0  0  0  0  0  0  0  0  0  0
    0.5667   -5.0542    0.0000 C   0  0  0  0  0  0  0  0  0  0  0  0
   -0.0625   -3.2000    0.0000 C   0  0  0  0  0  0  0  0  0  0  0  0
   10.3042   -3.9500    0.0000 C   0  0  0  0  0  0  0  0  0  0  0  0
  2  1  1  0  0  0  0
  3  1  1  0  0  0  0
  4  7  1  0  0  0  0
  5  8  1  0  0  0  0
  6 15  1  0  0  0  0
  7  2  1  0  0  0  0
  8 16  2  0  0  0  0
  9 21  1  0  0  0  0
 10  3  2  0  0  0  0
 11  2  2  0  0  0  0
 12  4  2  0  0  0  0
 13  3  1  0  0  0  0
 14 12  1  0  0  0  0
 15 17  2  0  0  0  0
 16 23  1  0  0  0  0
 17 16  1  0  0  0  0
 18  5  1  0  0  0  0
 19  6  1  0  0  0  0
 20 13  1  0  0  0  0
 21 14  2  0  0  0  0
 22 27  1  0  0  0  0
 23 20  1  0  0  0  0
 24 14  1  0  0  0  0
 25 18  1  0  0  0  0
 26 19  1  0  0  0  0
 27 24  2  0  0  0  0
  6  5  2  0  0  0  0
 22  9  2  0  0  0  0
M  END
> <#>
1684

> <PLATE>
LAT022

> <ROW>
D

> <COL>
2

> <COORD>
D02

> <LATID>
LAT022D02

> <Supplier>
Chembridge

> <Suplier_CAT#>
5655076

> <Name>
Novel

> <Concentration_(mM)>
2.5

> <IC50_(µM)>
inactive

> <Yeast_Active?>
-

> <Pubchem_CID>
2255280

$$$$
