
  -ISIS-  08130814242D

 20 21  0  0  0  0  0  0  0  0999 V2000
    6.4500   -2.1375    0.0000 C   0  0  0  0  0  0  0  0  0  0  0  0
    8.3500   -2.1375    0.0000 N   0  0  0  0  0  0  0  0  0  0  0  0
    7.4000   -2.6792    0.0000 N   0  0  0  0  0  0  0  0  0  0  0  0
    6.4500   -1.0375    0.0000 O   0  0  0  0  0  0  0  0  0  0  0  0
   12.1375   -2.1375    0.0000 N   0  0  0  0  0  0  0  0  0  0  0  0
    4.5542   -2.1375    0.0000 N   0  0  0  0  0  0  0  0  0  0  0  0
    9.3000   -2.6792    0.0000 C   0  0  0  0  0  0  0  0  0  0  0  0
    5.5042   -2.6792    0.0000 C   0  0  0  0  0  0  0  0  0  0  0  0
   10.2375   -2.1375    0.0000 C   0  0  0  0  0  0  0  0  0  0  0  0
    3.6042   -2.6792    0.0000 C   0  0  0  0  0  0  0  0  0  0  0  0
    1.7167   -3.7792    0.0000 C   0  0  0  0  0  0  0  0  0  0  0  0
    0.7667   -4.3167    0.0000 I   0  0  0  0  0  0  0  0  0  0  0  0
    3.6042   -3.7792    0.0000 C   0  0  0  0  0  0  0  0  0  0  0  0
    2.6542   -2.1375    0.0000 C   0  0  0  0  0  0  0  0  0  0  0  0
    2.6542   -4.3167    0.0000 C   0  0  0  0  0  0  0  0  0  0  0  0
    1.7167   -2.6792    0.0000 C   0  0  0  0  0  0  0  0  0  0  0  0
   11.1875   -2.6792    0.0000 C   0  0  0  0  0  0  0  0  0  0  0  0
   12.1375   -1.0375    0.0000 C   0  0  0  0  0  0  0  0  0  0  0  0
   10.2375   -1.0375    0.0000 C   0  0  0  0  0  0  0  0  0  0  0  0
   11.1875   -0.5000    0.0000 C   0  0  0  0  0  0  0  0  0  0  0  0
  2  3  1  0  0  0  0
  3  1  1  0  0  0  0
  4  1  2  0  0  0  0
  5 17  1  0  0  0  0
  6  8  1  0  0  0  0
  7  2  2  0  0  0  0
  8  1  1  0  0  0  0
  9  7  1  0  0  0  0
 10  6  1  0  0  0  0
 11 16  1  0  0  0  0
 12 11  1  0  0  0  0
 13 10  2  0  0  0  0
 14 10  1  0  0  0  0
 15 13  1  0  0  0  0
 16 14  2  0  0  0  0
 17  9  2  0  0  0  0
 18 20  1  0  0  0  0
 19  9  1  0  0  0  0
 20 19  2  0  0  0  0
 15 11  2  0  0  0  0
 18  5  2  0  0  0  0
M  END
> <#>
1591

> <PLATE>
LAT020

> <ROW>
G

> <COL>
10

> <COORD>
G10

> <LATID>
LAT020G10

> <Supplier>
Chembridge

> <Suplier_CAT#>
5248214

> <Name>
Novel

> <Concentration_(mM)>
2.5

> <IC50_(µM)>
23

> <Yeast_Active?>
-

> <Pubchem_CID>
1376290

$$$$
