
  -ISIS-  08130814242D

 21 22  0  0  0  0  0  0  0  0999 V2000
    1.6875   -1.0250    0.0000 N   0  3  0  0  0  0  0  0  0  0  0  0
    3.8292   -0.6042    0.0000 C   0  0  0  0  0  0  0  0  0  0  0  0
    3.1167   -1.0167    0.0000 C   0  0  0  0  0  0  0  0  0  0  0  0
    2.4042   -0.6042    0.0000 C   0  0  0  0  0  0  0  0  0  0  0  0
    5.2625   -0.6042    0.0000 C   0  0  0  0  0  0  0  0  0  0  0  0
    4.5500   -1.0167    0.0000 C   0  0  0  0  0  0  0  0  0  0  0  0
    5.9792   -1.0167    0.0000 C   0  0  0  0  0  0  0  0  0  0  0  0
    0.9667   -0.6125    0.0000 O   0  5  0  0  0  0  0  0  0  0  0  0
    3.8292    0.2208    0.0000 C   0  0  0  0  0  0  0  0  0  0  0  0
    1.6875   -1.8500    0.0000 O   0  0  0  0  0  0  0  0  0  0  0  0
    6.6917   -0.6042    0.0000 C   0  0  0  0  0  0  0  0  0  0  0  0
    2.4042    0.2208    0.0000 C   0  0  0  0  0  0  0  0  0  0  0  0
    4.5500   -1.8417    0.0000 O   0  0  0  0  0  0  0  0  0  0  0  0
    7.4042   -1.0167    0.0000 C   0  0  0  0  0  0  0  0  0  0  0  0
    3.1167    0.6333    0.0000 C   0  0  0  0  0  0  0  0  0  0  0  0
    7.4042   -1.8417    0.0000 F   0  0  0  0  0  0  0  0  0  0  0  0
    4.5417    0.6375    0.0000 O   0  0  0  0  0  0  0  0  0  0  0  0
    6.6875    0.2208    0.0000 C   0  0  0  0  0  0  0  0  0  0  0  0
    8.1167   -0.6042    0.0000 C   0  0  0  0  0  0  0  0  0  0  0  0
    8.1167    0.2208    0.0000 C   0  0  0  0  0  0  0  0  0  0  0  0
    7.4000    0.6333    0.0000 C   0  0  0  0  0  0  0  0  0  0  0  0
  2  3  2  0  0  0  0
  3  4  1  0  0  0  0
  4  1  1  0  0  0  0
  5  6  1  0  0  0  0
  6  2  1  0  0  0  0
  7  5  2  0  0  0  0
  8  1  1  0  0  0  0
  9 15  2  0  0  0  0
 10  1  2  0  0  0  0
 11  7  1  0  0  0  0
 12  4  2  0  0  0  0
 13  6  2  0  0  0  0
 14 11  2  0  0  0  0
 15 12  1  0  0  0  0
 16 14  1  0  0  0  0
 17  9  1  0  0  0  0
 18 11  1  0  0  0  0
 19 14  1  0  0  0  0
 20 21  1  0  0  0  0
 21 18  2  0  0  0  0
  9  2  1  0  0  0  0
 20 19  2  0  0  0  0
M  CHG  2   1   1   8  -1
M  END
> <#>
1319

> <PLATE>
LAT017

> <ROW>
G

> <COL>
6

> <COORD>
G06

> <LATID>
LAT017G06

> <Supplier>
Chembridge

> <Suplier_CAT#>
7112291

> <Name>
Novel

> <Concentration_(mM)>
2.5

> <IC50_(µM)>
100

> <Yeast_Active?>
-

> <Pubchem_CID>
2926663

$$$$
