
  -ISIS-  08130814242D

 32 34  0  0  0  0  0  0  0  0999 V2000
   12.4294   -3.6480    0.0000 C   0  0  0  0  0  0  0  0  0  0  0  0
   11.9798   -2.8773    0.0000 C   0  0  0  0  0  0  0  0  0  0  0  0
   11.0874   -2.8813    0.0000 C   0  0  0  0  0  0  0  0  0  0  0  0
   10.6378   -2.1105    0.0000 C   0  0  3  0  0  0  0  0  0  0  0  0
   11.0805   -1.3358    0.0000 C   0  0  0  0  0  0  0  0  0  0  0  0
   11.9728   -1.3318    0.0000 O   0  0  0  0  0  0  0  0  0  0  0  0
   10.6309   -0.5650    0.0000 O   0  0  0  0  0  0  0  0  0  0  0  0
    9.7455   -2.1146    0.0000 N   0  0  0  0  0  0  0  0  0  0  0  0
    9.3028   -2.8893    0.0000 C   0  0  0  0  0  0  0  0  0  0  0  0
    9.7524   -3.6601    0.0000 O   0  0  0  0  0  0  0  0  0  0  0  0
    8.4105   -2.8933    0.0000 C   0  0  0  0  0  0  0  0  0  0  0  0
    7.9678   -3.6681    0.0000 C   0  0  0  0  0  0  0  0  0  0  0  0
    7.0755   -3.6721    0.0000 C   0  0  0  0  0  0  0  0  0  0  0  0
    7.9609   -2.1226    0.0000 C   0  0  0  0  0  0  0  0  0  0  0  0
    7.0686   -2.1266    0.0000 C   0  0  0  0  0  0  0  0  0  0  0  0
    6.6259   -2.9014    0.0000 C   0  0  0  0  0  0  0  0  0  0  0  0
    5.7336   -2.9054    0.0000 N   0  0  0  0  0  0  0  0  0  0  0  0
    5.2909   -3.6802    0.0000 C   0  0  0  0  0  0  0  0  0  0  0  0
    4.3986   -3.6842    0.0000 C   0  0  0  0  0  0  0  0  0  0  0  0
    3.9559   -4.4589    0.0000 N   0  0  0  0  0  0  0  0  0  0  0  0
    3.0636   -4.4630    0.0000 C   0  0  0  0  0  0  0  0  0  0  0  0
    2.6209   -5.2377    0.0000 C   0  0  0  0  0  0  0  0  0  0  0  0
    3.0705   -6.0085    0.0000 O   0  0  0  0  0  0  0  0  0  0  0  0
    1.7286   -5.2417    0.0000 N   0  0  0  0  0  0  0  0  0  0  0  0
    1.2790   -4.4710    0.0000 C   0  0  0  0  0  0  0  0  0  0  0  0
    0.3867   -4.4750    0.0000 N   0  0  0  0  0  0  0  0  0  0  0  0
    1.7217   -3.6962    0.0000 N   0  0  0  0  0  0  0  0  0  0  0  0
    2.6140   -3.6922    0.0000 C   0  0  0  0  0  0  0  0  0  0  0  0
    3.0566   -2.9174    0.0000 N   0  0  0  0  0  0  0  0  0  0  0  0
    3.9490   -2.9134    0.0000 C   0  0  0  0  0  0  0  0  0  0  0  0
   13.3217   -3.6440    0.0000 O   0  0  0  0  0  0  0  0  0  0  0  0
   11.9867   -4.4228    0.0000 O   0  0  0  0  0  0  0  0  0  0  0  0
  1  2  1  0  0  0  0
  2  3  1  0  0  0  0
  3  4  1  0  0  0  0
  4  5  1  0  0  0  0
  5  6  2  0  0  0  0
  5  7  1  0  0  0  0
  4  8  1  0  0  0  0
  8  9  1  0  0  0  0
  9 10  2  0  0  0  0
  9 11  1  0  0  0  0
 11 12  1  0  0  0  0
 12 13  2  0  0  0  0
 11 14  2  0  0  0  0
 14 15  1  0  0  0  0
 15 16  2  0  0  0  0
 13 16  1  0  0  0  0
 16 17  1  0  0  0  0
 17 18  1  0  0  0  0
 18 19  1  0  0  0  0
 19 20  1  0  0  0  0
 20 21  2  0  0  0  0
 21 22  1  0  0  0  0
 22 23  2  0  0  0  0
 22 24  1  0  0  0  0
 24 25  1  0  0  0  0
 25 26  1  0  0  0  0
 25 27  2  0  0  0  0
 27 28  1  0  0  0  0
 21 28  1  0  0  0  0
 28 29  2  0  0  0  0
 29 30  1  0  0  0  0
 19 30  2  0  0  0  0
  1 31  2  0  0  0  0
  1 32  1  0  0  0  0
M  END
> <#>
472

> <PLATE>
LAT006

> <ROW>
H

> <COL>
10

> <COORD>
H10

> <LATID>
LAT006H10

> <Supplier>
Sigma

> <Suplier_CAT#>
F-8890

> <Name>
Folic Acid

> <Concentration_(mM)>
2.5

> <IC50_(µM)>
inactive

> <Yeast_Active?>
-

> <Pubchem_CID>
6037

$$$$
