
  -ISIS-  08130814242D

 27 29  0  0  0  0  0  0  0  0999 V2000
    2.6250   -2.0042    0.0000 C   0  0  0  0  0  0  0  0  0  0  0  0
    2.6250   -1.2542    0.0000 C   0  0  0  0  0  0  0  0  0  0  0  0
    3.2750   -2.3792    0.0000 C   0  0  0  0  0  0  0  0  0  0  0  0
    1.9750   -2.3792    0.0000 N   0  0  0  0  0  0  0  0  0  0  0  0
    1.3250   -2.0042    0.0000 C   0  0  0  0  0  0  0  0  0  0  0  0
    3.2750   -0.8792    0.0000 C   0  0  0  0  0  0  0  0  0  0  0  0
    3.9625   -1.1875    0.0000 S   0  0  0  0  0  0  0  0  0  0  0  0
    4.5750   -2.3792    0.0000 N   0  0  0  0  0  0  0  0  0  0  0  0
    3.9250   -2.0042    0.0000 N   0  0  0  0  0  0  0  0  0  0  0  0
    3.2750   -3.1292    0.0000 O   0  0  0  0  0  0  0  0  0  0  0  0
    1.3250   -1.2542    0.0000 O   0  0  0  0  0  0  0  0  0  0  0  0
    4.4625   -0.6292    0.0000 C   0  0  0  0  0  0  0  0  0  0  0  0
    0.6750   -2.3792    0.0000 C   0  0  0  0  0  0  0  0  0  0  0  0
    3.3542   -0.1292    0.0000 C   0  0  0  0  0  0  0  0  0  0  0  0
    7.1667   -2.3792    0.0000 N   0  0  0  0  0  0  0  0  0  0  0  0
    4.0875    0.0208    0.0000 C   0  0  0  0  0  0  0  0  0  0  0  0
    5.2250   -2.0042    0.0000 C   0  0  0  0  0  0  0  0  0  0  0  0
    5.8667   -2.3792    0.0000 C   0  0  0  0  0  0  0  0  0  0  0  0
    6.5167   -2.0042    0.0000 C   0  0  0  0  0  0  0  0  0  0  0  0
    7.1667   -3.1292    0.0000 C   0  0  0  0  0  0  0  0  0  0  0  0
    0.0167   -2.0000    0.0000 C   0  0  0  0  0  0  0  0  0  0  0  0
    0.6750   -3.1292    0.0000 C   0  0  0  0  0  0  0  0  0  0  0  0
    5.8667   -3.1292    0.0000 C   0  0  0  0  0  0  0  0  0  0  0  0
    6.5167   -3.5042    0.0000 C   0  0  0  0  0  0  0  0  0  0  0  0
   -0.6250   -2.3792    0.0000 C   0  0  0  0  0  0  0  0  0  0  0  0
    0.0167   -3.5042    0.0000 C   0  0  0  0  0  0  0  0  0  0  0  0
   -0.6250   -3.1292    0.0000 C   0  0  0  0  0  0  0  0  0  0  0  0
  2  1  2  0  0  0  0
  3  1  1  0  0  0  0
  4  1  1  0  0  0  0
  5  4  1  0  0  0  0
  6  2  1  0  0  0  0
  7  6  1  0  0  0  0
  8  9  1  0  0  0  0
  9  3  1  0  0  0  0
 10  3  2  0  0  0  0
 11  5  2  0  0  0  0
 12  7  1  0  0  0  0
 13  5  1  0  0  0  0
 14  6  2  0  0  0  0
 15 19  1  0  0  0  0
 16 14  1  0  0  0  0
 17  8  2  0  0  0  0
 18 17  1  0  0  0  0
 19 18  2  0  0  0  0
 20 24  1  0  0  0  0
 21 13  1  0  0  0  0
 22 13  2  0  0  0  0
 23 18  1  0  0  0  0
 24 23  2  0  0  0  0
 25 21  2  0  0  0  0
 26 22  1  0  0  0  0
 27 26  2  0  0  0  0
 16 12  2  0  0  0  0
 27 25  1  0  0  0  0
 15 20  2  0  0  0  0
M  END
> <#>
1643

> <PLATE>
LAT021

> <ROW>
C

> <COL>
7

> <COORD>
C07

> <LATID>
LAT021C07

> <Supplier>
Chembridge

> <Suplier_CAT#>
6050952

> <Name>
Novel

> <Concentration_(mM)>
2.5

> <IC50_(µM)>
inactive

> <Yeast_Active?>
-

> <Pubchem_CID>
2883019

$$$$
