
  -ISIS-  08130814242D

 30 33  0  0  0  0  0  0  0  0999 V2000
    5.0167   -4.3625    0.0000 C   0  0  0  0  0  0  0  0  0  0  0  0
    5.7375   -3.9417    0.0000 N   0  0  3  0  0  0  0  0  0  0  0  0
    7.8875   -2.7042    0.0000 C   0  0  0  0  0  0  0  0  0  0  0  0
    8.6042   -3.1167    0.0000 N   0  0  0  0  0  0  0  0  0  0  0  0
    4.3000   -3.9417    0.0000 C   0  0  0  0  0  0  0  0  0  0  0  0
    7.1667   -3.1167    0.0000 C   0  0  3  0  0  0  0  0  0  0  0  0
    6.4500   -4.3542    0.0000 C   0  0  0  0  0  0  0  0  0  0  0  0
    5.7375   -3.1167    0.0000 C   0  0  0  0  0  0  0  0  0  0  0  0
    5.0167   -5.1917    0.0000 O   0  0  0  0  0  0  0  0  0  0  0  0
    2.8667   -3.1167    0.0000 C   0  0  0  0  0  0  0  0  0  0  0  0
   10.0292   -3.9500    0.0000 N   0  0  0  0  0  0  0  0  0  0  0  0
    7.8917   -1.8750    0.0000 O   0  0  0  0  0  0  0  0  0  0  0  0
    3.5792   -4.3667    0.0000 C   0  0  0  0  0  0  0  0  0  0  0  0
    4.3000   -3.1167    0.0000 C   0  0  0  0  0  0  0  0  0  0  0  0
    3.5792   -2.7042    0.0000 C   0  0  0  0  0  0  0  0  0  0  0  0
    2.8667   -3.9542    0.0000 C   0  0  0  0  0  0  0  0  0  0  0  0
    7.1667   -3.9417    0.0000 C   0  0  0  0  0  0  0  0  0  0  0  0
    6.4500   -2.7000    0.0000 C   0  0  0  0  0  0  0  0  0  0  0  0
    2.1500   -2.7042    0.0000 C   0  0  0  0  0  0  0  0  0  0  0  0
    9.3167   -2.7042    0.0000 C   0  0  0  0  0  0  0  0  0  0  0  0
   10.0292   -3.1167    0.0000 C   0  0  0  0  0  0  0  0  0  0  0  0
   10.7417   -4.3667    0.0000 C   0  0  0  0  0  0  0  0  0  0  0  0
    1.4417   -3.1250    0.0000 C   0  0  0  0  0  0  0  0  0  0  0  0
    2.1500   -1.8875    0.0000 C   0  0  0  0  0  0  0  0  0  0  0  0
   10.7500   -2.7125    0.0000 C   0  0  0  0  0  0  0  0  0  0  0  0
   11.4667   -3.9542    0.0000 C   0  0  0  0  0  0  0  0  0  0  0  0
    1.4375   -1.4750    0.0000 C   0  0  0  0  0  0  0  0  0  0  0  0
    0.7250   -2.7167    0.0000 C   0  0  0  0  0  0  0  0  0  0  0  0
   11.4625   -3.1167    0.0000 C   0  0  0  0  0  0  0  0  0  0  0  0
    0.7167   -1.8917    0.0000 C   0  0  0  0  0  0  0  0  0  0  0  0
  2  1  1  0  0  0  0
  3  6  1  0  0  0  0
  4  3  1  0  0  0  0
  5  1  1  0  0  0  0
  6 18  1  0  0  0  0
  7  2  1  0  0  0  0
  8  2  1  0  0  0  0
  9  1  2  0  0  0  0
 10 15  2  0  0  0  0
 11 21  2  0  0  0  0
 12  3  2  0  0  0  0
 13  5  1  0  0  0  0
 14  5  2  0  0  0  0
 15 14  1  0  0  0  0
 16 13  2  0  0  0  0
 17  7  1  0  0  0  0
 18  8  1  0  0  0  0
 19 10  1  0  0  0  0
 20  4  1  0  0  0  0
 21 20  1  0  0  0  0
 22 11  1  0  0  0  0
 23 19  1  0  0  0  0
 24 19  2  0  0  0  0
 25 21  1  0  0  0  0
 26 29  1  0  0  0  0
 27 24  1  0  0  0  0
 28 23  2  0  0  0  0
 29 25  2  0  0  0  0
 30 27  2  0  0  0  0
 10 16  1  0  0  0  0
  6 17  1  0  0  0  0
 30 28  1  0  0  0  0
 22 26  2  0  0  0  0
M  END
> <#>
1548

> <PLATE>
LAT020

> <ROW>
D

> <COL>
5

> <COORD>
D05

> <LATID>
LAT020D05

> <Supplier>
Chembridge

> <Suplier_CAT#>
7514102

> <Name>
Novel

> <Concentration_(mM)>
2.5

> <IC50_(µM)>
>100

> <Yeast_Active?>
-

> <Pubchem_CID>
1082906

$$$$
