
  -ISIS-  08130814242D

 16 18  0  0  0  0  0  0  0  0999 V2000
    7.1667   -3.6125    0.0000 C   0  0  0  0  0  0  0  0  0  0  0  0
    6.4542   -4.0167    0.0000 N   0  0  0  0  0  0  0  0  0  0  0  0
    7.1750   -2.7792    0.0000 C   0  0  0  0  0  0  0  0  0  0  0  0
    5.7417   -3.6000    0.0000 C   0  0  0  0  0  0  0  0  0  0  0  0
    5.7417   -2.7750    0.0000 C   0  0  0  0  0  0  0  0  0  0  0  0
    7.8792   -4.0292    0.0000 C   0  0  0  0  0  0  0  0  0  0  0  0
    8.6000   -3.6250    0.0000 N   0  0  0  0  0  0  0  0  0  0  0  0
    5.0292   -4.0042    0.0000 C   0  0  0  0  0  0  0  0  0  0  0  0
    5.0292   -2.3625    0.0000 C   0  0  0  0  0  0  0  0  0  0  0  0
    4.3250   -3.6000    0.0000 C   0  0  0  0  0  0  0  0  0  0  0  0
    7.8917   -2.3750    0.0000 C   0  0  0  0  0  0  0  0  0  0  0  0
    8.6042   -2.7917    0.0000 C   0  0  0  0  0  0  0  0  0  0  0  0
    4.3250   -2.7750    0.0000 C   0  0  0  0  0  0  0  0  0  0  0  0
    3.6042   -4.0167    0.0000 O   0  0  0  0  0  0  0  0  0  0  0  0
    7.8667   -4.8542    0.0000 C   0  0  0  0  0  0  0  0  0  0  0  0
    2.8917   -3.6042    0.0000 C   0  0  0  0  0  0  0  0  0  0  0  0
  2  1  1  0  0  0  0
  3  1  2  0  0  0  0
  4  2  1  0  0  0  0
  5  3  1  0  0  0  0
  6  1  1  0  0  0  0
  7  6  2  0  0  0  0
  8  4  1  0  0  0  0
  9  5  1  0  0  0  0
 10  8  2  0  0  0  0
 11  3  1  0  0  0  0
 12  7  1  0  0  0  0
 13  9  2  0  0  0  0
 14 10  1  0  0  0  0
 15  6  1  0  0  0  0
 16 14  1  0  0  0  0
  4  5  2  0  0  0  0
 12 11  1  0  0  0  0
 13 10  1  0  0  0  0
M  END
> <#>
128

> <PLATE>
LAT002

> <ROW>
H

> <COL>
7

> <COORD>
H07

> <LATID>
LAT002H07

> <Supplier>
Microsource

> <Suplier_CAT#>
01500864

> <Name>
Harmaline

> <Concentration_(mM)>
2.5

> <IC50_(µM)>
2.4

> <Yeast_Active?>
-

> <Pubchem_CID>
5280951

> <Description>
CNS Stimulant, Antiparkinsonian Agent

> <Source>
Natural Product; ex Peganium harmala

$$$$
