
  -ISIS-  08130814242D

 23 25  0  0  0  0  0  0  0  0999 V2000
    3.3625    1.7833    0.0000 N   0  0  3  0  0  0  0  0  0  0  0  0
    3.8042    1.1708    0.0000 C   0  0  0  0  0  0  0  0  0  0  0  0
    4.5167    2.1583    0.0000 C   0  0  3  0  0  0  0  0  0  0  0  0
    3.8042    2.3958    0.0000 C   0  0  0  0  0  0  0  0  0  0  0  0
    5.1250    2.5958    0.0000 C   0  0  0  0  0  0  0  0  0  0  0  0
    4.5167    1.4083    0.0000 C   0  0  0  0  0  0  0  0  0  0  0  0
    2.6125    1.7833    0.0000 C   0  0  0  0  0  0  0  0  0  0  0  0
    5.8042    2.2958    0.0000 N   0  0  0  0  0  0  0  0  0  0  0  0
    3.5667    0.4583    0.0000 O   0  0  0  0  0  0  0  0  0  0  0  0
    7.1792    1.6833    0.0000 N   0  0  0  0  0  0  0  0  0  0  0  0
    5.0417    3.3458    0.0000 O   0  0  0  0  0  0  0  0  0  0  0  0
    2.2375    2.4333    0.0000 C   0  0  0  0  0  0  0  0  0  0  0  0
    2.2375    1.1333    0.0000 C   0  0  0  0  0  0  0  0  0  0  0  0
    6.4167    2.7333    0.0000 C   0  0  0  0  0  0  0  0  0  0  0  0
    7.1000    2.4250    0.0000 C   0  0  0  0  0  0  0  0  0  0  0  0
    1.1125    1.7833    0.0000 C   0  0  0  0  0  0  0  0  0  0  0  0
    1.4875    2.4333    0.0000 C   0  0  0  0  0  0  0  0  0  0  0  0
    1.4875    1.1333    0.0000 C   0  0  0  0  0  0  0  0  0  0  0  0
    0.3625    1.7833    0.0000 F   0  0  0  0  0  0  0  0  0  0  0  0
    7.8667    1.3750    0.0000 C   0  0  0  0  0  0  0  0  0  0  0  0
    7.7042    2.8708    0.0000 C   0  0  0  0  0  0  0  0  0  0  0  0
    8.4667    1.8208    0.0000 C   0  0  0  0  0  0  0  0  0  0  0  0
    8.3917    2.5625    0.0000 C   0  0  0  0  0  0  0  0  0  0  0  0
  2  1  1  0  0  0  0
  3  4  1  0  0  0  0
  4  1  1  0  0  0  0
  5  3  1  0  0  0  0
  6  2  1  0  0  0  0
  7  1  1  0  0  0  0
  8  5  1  0  0  0  0
  9  2  2  0  0  0  0
 10 15  1  0  0  0  0
 11  5  2  0  0  0  0
 12  7  2  0  0  0  0
 13  7  1  0  0  0  0
 14  8  1  0  0  0  0
 15 14  1  0  0  0  0
 16 18  1  0  0  0  0
 17 12  1  0  0  0  0
 18 13  2  0  0  0  0
 19 16  1  0  0  0  0
 20 10  2  0  0  0  0
 21 15  2  0  0  0  0
 22 23  2  0  0  0  0
 23 21  1  0  0  0  0
  6  3  1  0  0  0  0
 16 17  2  0  0  0  0
 22 20  1  0  0  0  0
M  END
> <#>
1552

> <PLATE>
LAT020

> <ROW>
H

> <COL>
5

> <COORD>
H05

> <LATID>
LAT020H05

> <Supplier>
Chembridge

> <Suplier_CAT#>
9021898

> <Name>
Novel

> <Concentration_(mM)>
2.5

> <IC50_(µM)>
inactive

> <Yeast_Active?>
-

> <Pubchem_CID>
6459163

$$$$
