
  -ISIS-  08130814242D

 37 41  0  0  0  0  0  0  0  0999 V2000
    1.8792    0.3000    0.0000 C   0  0  0  0  0  0  0  0  0  0  0  0
    1.0000   -0.1792    0.0000 C   0  0  1  0  0  0  0  0  0  0  0  0
   -0.7833   -0.1792    0.0000 C   0  0  2  0  0  0  0  0  0  0  0  0
    1.8792    1.3208    0.0000 C   0  0  2  0  0  0  0  0  0  0  0  0
    0.1000    0.3000    0.0000 C   0  0  3  0  0  0  0  0  0  0  0  0
   -0.7833   -1.2042    0.0000 C   0  0  3  0  0  0  0  0  0  0  0  0
    2.7500    1.8458    0.0000 C   0  0  1  0  0  0  0  0  0  0  0  0
    1.0000   -1.1792    0.0000 C   0  0  1  0  0  0  0  0  0  0  0  0
   -1.6500   -1.7292    0.0000 C   0  0  3  0  0  0  0  0  0  0  0  0
   -1.6500    0.3000    0.0000 C   0  0  0  0  0  0  0  0  0  0  0  0
    2.7500   -0.1792    0.0000 C   0  0  0  0  0  0  0  0  0  0  0  0
    3.6167    1.3208    0.0000 O   0  0  0  0  0  0  0  0  0  0  0  0
    0.1375   -1.6792    0.0000 C   0  0  0  0  0  0  0  0  0  0  0  0
    3.6000    2.2208    0.0000 C   0  0  0  0  0  0  0  0  0  0  0  0
    3.6167    0.3000    0.0000 C   0  0  0  0  0  0  0  0  0  0  0  0
   -2.5333   -1.2042    0.0000 C   0  0  1  0  0  0  0  0  0  0  0  0
   -2.5333   -0.1792    0.0000 C   0  0  0  0  0  0  0  0  0  0  0  0
    1.0000    1.8458    0.0000 C   0  0  0  0  0  0  0  0  0  0  0  0
    0.1000    1.3208    0.0000 C   0  0  0  0  0  0  0  0  0  0  0  0
    1.9000   -1.6292    0.0000 O   0  0  0  0  0  0  0  0  0  0  0  0
   -3.4333   -1.7167    0.0000 O   0  0  0  0  0  0  0  0  0  0  0  0
    1.8875   -2.6292    0.0000 C   0  0  0  0  0  0  0  0  0  0  0  0
   -4.2458   -1.2167    0.0000 C   0  0  0  0  0  0  0  0  0  0  0  0
    3.7292    3.1958    0.0000 C   0  0  0  0  0  0  0  0  0  0  0  0
    4.5042    1.7625    0.0000 C   0  0  0  0  0  0  0  0  0  0  0  0
    4.7292    3.3958    0.0000 O   0  0  0  0  0  0  0  0  0  0  0  0
    4.5042   -0.2167    0.0000 O   0  0  0  0  0  0  0  0  0  0  0  0
    5.1875    2.4958    0.0000 C   0  0  0  0  0  0  0  0  0  0  0  0
    2.8292   -3.1500    0.0000 O   0  0  0  0  0  0  0  0  0  0  0  0
   -5.1208   -1.7000    0.0000 O   0  0  0  0  0  0  0  0  0  0  0  0
    1.0000    1.0333    0.0000 C   0  0  0  0  0  0  0  0  0  0  0  0
   -0.7833    0.9625    0.0000 C   0  0  0  0  0  0  0  0  0  0  0  0
    1.8792    2.3500    0.0000 C   0  0  0  0  0  0  0  0  0  0  0  0
   -0.7833   -2.2667    0.0000 C   0  0  0  0  0  0  0  0  0  0  0  0
   -2.5333   -2.2667    0.0000 C   0  0  0  0  0  0  0  0  0  0  0  0
    1.1042   -3.0792    0.0000 C   0  0  0  0  0  0  0  0  0  0  0  0
   -4.2333   -0.2375    0.0000 C   0  0  0  0  0  0  0  0  0  0  0  0
  2  1  1  0  0  0  0
  3  5  1  0  0  0  0
  4  1  1  0  0  0  0
  5  2  1  0  0  0  0
  6 13  1  0  0  0  0
  7  4  1  0  0  0  0
  8  2  1  0  0  0  0
  9  6  1  0  0  0  0
 10  3  1  0  0  0  0
 11  1  2  0  0  0  0
 12 15  1  0  0  0  0
 13  8  1  0  0  0  0
  7 14  1  6  0  0  0
 15 11  1  0  0  0  0
 16  9  1  0  0  0  0
 17 10  2  0  0  0  0
 18  4  1  0  0  0  0
 19 18  1  0  0  0  0
  8 20  1  6  0  0  0
 16 21  1  6  0  0  0
 22 20  1  0  0  0  0
 23 21  1  0  0  0  0
 24 14  2  0  0  0  0
 25 14  1  0  0  0  0
 26 24  1  0  0  0  0
 27 15  2  0  0  0  0
 28 25  2  0  0  0  0
 29 22  2  0  0  0  0
 30 23  2  0  0  0  0
  2 31  1  1  0  0  0
  3 32  1  1  0  0  0
  4 33  1  6  0  0  0
 34  9  1  0  0  0  0
 35  9  1  0  0  0  0
 36 22  1  0  0  0  0
 37 23  1  0  0  0  0
 12  7  1  0  0  0  0
  5 19  1  0  0  0  0
  3  6  1  0  0  0  0
 28 26  1  0  0  0  0
 16 17  1  0  0  0  0
M  END
> <#>
165

> <PLATE>
LAT003

> <ROW>
E

> <COL>
2

> <COORD>
E02

> <LATID>
LAT003E02

> <Supplier>
Microsource

> <Suplier_CAT#>
00100199

> <Name>
Deoxygedunol Acetate

> <Concentration_(mM)>
2.5

> <IC50_(µM)>
27

> <Yeast_Active?>
-

> <Pubchem_CID>
3624630

> <Source>
derivative

$$$$
