
  -ISIS-  08130814242D

 23 24  0  0  0  0  0  0  0  0999 V2000
    3.8542    2.9625    0.0000 C   0  0  0  0  0  0  0  0  0  0  0  0
    5.1417    3.7208    0.0000 C   0  0  0  0  0  0  0  0  0  0  0  0
    6.4375    2.9833    0.0000 C   0  0  0  0  0  0  0  0  0  0  0  0
    2.5792    3.7083    0.0000 C   0  0  0  0  0  0  0  0  0  0  0  0
    7.7167    3.7333    0.0000 C   0  0  0  0  0  0  0  0  0  0  0  0
    3.8542    1.4708    0.0000 C   0  0  0  0  0  0  0  0  0  0  0  0
    9.0125    2.9958    0.0000 C   0  0  0  0  0  0  0  0  0  0  0  0
   12.3792    0.9500    0.0000 C   0  0  3  0  0  0  0  0  0  0  0  0
   11.5667    1.4958    0.0000 C   0  0  0  0  0  0  0  0  0  0  0  0
    1.3000    2.9708    0.0000 C   0  0  0  0  0  0  0  0  0  0  0  0
    5.1417    5.2000    0.0000 O   0  0  0  0  0  0  0  0  0  0  0  0
    7.7167    5.2167    0.0000 O   0  0  0  0  0  0  0  0  0  0  0  0
    9.0000    1.5083    0.0000 C   0  0  0  0  0  0  0  0  0  0  0  0
   10.2917    3.7333    0.0000 C   0  0  0  0  0  0  0  0  0  0  0  0
   11.5667    2.9833    0.0000 C   0  0  0  0  0  0  0  0  0  0  0  0
   10.2792    0.7583    0.0000 C   0  0  0  0  0  0  0  0  0  0  0  0
    2.5667    5.1792    0.0000 O   0  0  0  0  0  0  0  0  0  0  0  0
    2.5667    0.7375    0.0000 C   0  0  0  0  0  0  0  0  0  0  0  0
    1.2917    1.4833    0.0000 C   0  0  0  0  0  0  0  0  0  0  0  0
   13.2292    0.4583    0.0000 C   0  0  0  0  0  0  0  0  0  0  0  0
   12.1292    0.0000    0.0000 C   0  0  0  0  0  0  0  0  0  0  0  0
   13.0750    1.6458    0.0000 C   0  0  0  0  0  0  0  0  0  0  0  0
    0.0000    0.7583    0.0000 C   0  0  0  0  0  0  0  0  0  0  0  0
  2  1  1  0  0  0  0
  3  2  1  0  0  0  0
  4  1  2  0  0  0  0
  5  3  1  0  0  0  0
  6  1  1  0  0  0  0
  7  5  1  0  0  0  0
  8  9  1  0  0  0  0
  9 15  1  0  0  0  0
 10  4  1  0  0  0  0
 11  2  2  0  0  0  0
 12  5  2  0  0  0  0
 13  7  2  0  0  0  0
 14  7  1  0  0  0  0
 15 14  2  0  0  0  0
 16 13  1  0  0  0  0
 17  4  1  0  0  0  0
 18  6  2  0  0  0  0
 19 18  1  0  0  0  0
 20  8  1  0  0  0  0
 21  8  1  0  0  0  0
 22  8  1  0  0  0  0
 23 19  1  0  0  0  0
 19 10  2  0  0  0  0
  9 16  2  0  0  0  0
M  END
> <#>
1217

> <PLATE>
LAT016

> <ROW>
A

> <COL>
4

> <COORD>
A04

> <LATID>
LAT016A04

> <Supplier>
Chembridge

> <Suplier_CAT#>
5959870

> <Name>
Novel

> <Concentration_(mM)>
2.5

> <IC50_(µM)>
inactive

> <Yeast_Active?>
-

> <Pubchem_CID>
876363

$$$$
