
  -ISIS-  08130814242D

 27 29  0  0  0  0  0  0  0  0999 V2000
   -5.8091    2.2762    0.0000 C   0  0  0  0  0  0  0  0  0  0  0  0
   -5.0363    1.8301    0.0000 C   0  0  0  0  0  0  0  0  0  0  0  0
   -4.2635    2.2762    0.0000 C   0  0  0  0  0  0  0  0  0  0  0  0
   -3.4908    1.8301    0.0000 C   0  0  0  0  0  0  0  0  0  0  0  0
   -3.4908    0.9378    0.0000 C   0  0  0  0  0  0  0  0  0  0  0  0
   -2.7180    0.4916    0.0000 N   0  0  0  0  0  0  0  0  0  0  0  0
   -1.9452    0.9378    0.0000 C   0  0  0  0  0  0  0  0  0  0  0  0
   -1.1724    0.4916    0.0000 C   0  0  0  0  0  0  0  0  0  0  0  0
   -0.3997    0.9378    0.0000 N   0  0  0  0  0  0  0  0  0  0  0  0
   -1.1724   -0.4007    0.0000 O   0  0  0  0  0  0  0  0  0  0  0  0
   -1.9452    1.8301    0.0000 C   0  0  0  0  0  0  0  0  0  0  0  0
   -2.7180    2.2762    0.0000 N   0  0  3  0  0  0  0  0  0  0  0  0
   -2.7180    3.1686    0.0000 C   0  0  0  0  0  0  0  0  0  0  0  0
   -1.9452    3.6147    0.0000 C   0  0  1  0  0  0  0  0  0  0  0  0
   -1.1724    3.1686    0.0000 O   0  0  0  0  0  0  0  0  0  0  0  0
   -1.9452    4.5096    0.0000 C   0  0  1  0  0  0  0  0  0  0  0  0
   -1.1724    4.9551    0.0000 O   0  0  0  0  0  0  0  0  0  0  0  0
   -2.7180    4.9551    0.0000 C   0  0  1  0  0  0  0  0  0  0  0  0
   -2.7180    5.8462    0.0000 O   0  0  0  0  0  0  0  0  0  0  0  0
   -3.4908    4.5096    0.0000 C   0  0  0  0  0  0  0  0  0  0  0  0
   -3.4908    3.6147    0.0000 O   0  0  0  0  0  0  0  0  0  0  0  0
   -1.1724    2.2762    0.0000 N   0  0  0  0  0  0  0  0  0  0  0  0
   -0.3997    1.8301    0.0000 C   0  0  0  0  0  0  0  0  0  0  0  0
    0.3731    2.2762    0.0000 O   0  0  0  0  0  0  0  0  0  0  0  0
   -4.2635    0.4916    0.0000 C   0  0  0  0  0  0  0  0  0  0  0  0
   -5.0363    0.9378    0.0000 C   0  0  0  0  0  0  0  0  0  0  0  0
   -5.8091    0.4916    0.0000 C   0  0  0  0  0  0  0  0  0  0  0  0
  1  2  1  0  0  0  0
  2  3  2  0  0  0  0
  3  4  1  0  0  0  0
  4  5  2  0  0  0  0
  5  6  1  0  0  0  0
  6  7  2  0  0  0  0
  7  8  1  0  0  0  0
  8  9  1  0  0  0  0
  8 10  2  0  0  0  0
  7 11  1  0  0  0  0
 11 12  1  0  0  0  0
  4 12  1  0  0  0  0
 12 13  1  0  0  0  0
 13 14  1  0  0  0  0
 14 15  1  6  0  0  0
 14 16  1  0  0  0  0
 16 17  1  6  0  0  0
 16 18  1  0  0  0  0
 18 19  1  6  0  0  0
 18 20  1  0  0  0  0
 20 21  1  0  0  0  0
 11 22  2  0  0  0  0
 22 23  1  0  0  0  0
  9 23  1  0  0  0  0
 23 24  2  0  0  0  0
  5 25  1  0  0  0  0
 25 26  2  0  0  0  0
  2 26  1  0  0  0  0
 26 27  1  0  0  0  0
M  END
> <#>
465

> <PLATE>
LAT006

> <ROW>
A

> <COL>
10

> <COORD>
A10

> <LATID>
LAT006A10

> <Supplier>
Fluka

> <Suplier_CAT#>
95170

> <Name>
Vitamin B2

> <Concentration_(mM)>
2.5

> <IC50_(µM)>
inactive

> <Yeast_Active?>
-

> <Pubchem_CID>
1072

$$$$
