
  -ISIS-  08130814242D

 32 34  0  0  0  0  0  0  0  0999 V2000
    4.6625    1.3208    0.0000 S   0  0  3  0  0  0  0  0  0  0  0  0
    1.6250    2.5250    0.0000 C   0  0  3  0  0  0  0  0  0  0  0  0
    4.1292    1.8583    0.0000 N   0  0  0  0  0  0  0  0  0  0  0  0
    5.3125    1.6958    0.0000 C   0  0  0  0  0  0  0  0  0  0  0  0
    2.1542    1.9958    0.0000 C   0  0  0  0  0  0  0  0  0  0  0  0
    4.0875    0.8458    0.0000 O   0  0  0  0  0  0  0  0  0  0  0  0
    5.0917    0.7083    0.0000 O   0  0  0  0  0  0  0  0  0  0  0  0
    8.5625    2.8208    0.0000 C   0  0  0  0  0  0  0  0  0  0  0  0
    3.4042    1.6583    0.0000 C   0  0  0  0  0  0  0  0  0  0  0  0
    2.8792    2.1875    0.0000 C   0  0  0  0  0  0  0  0  0  0  0  0
    9.2125    2.4458    0.0000 N   0  0  0  0  0  0  0  0  0  0  0  0
   10.5042    1.6958    0.0000 N   0  0  0  0  0  0  0  0  0  0  0  0
    8.5625    3.5708    0.0000 O   0  0  0  0  0  0  0  0  0  0  0  0
    0.9750    2.1500    0.0000 F   0  0  0  0  0  0  0  0  0  0  0  0
    2.1917    3.0083    0.0000 F   0  0  0  0  0  0  0  0  0  0  0  0
    1.1917    3.1458    0.0000 F   0  0  0  0  0  0  0  0  0  0  0  0
    5.9625    1.3208    0.0000 C   0  0  0  0  0  0  0  0  0  0  0  0
    5.3125    2.4458    0.0000 C   0  0  0  0  0  0  0  0  0  0  0  0
    7.2625    2.8208    0.0000 O   0  0  0  0  0  0  0  0  0  0  0  0
    7.9125    2.4458    0.0000 C   0  0  0  0  0  0  0  0  0  0  0  0
   10.5042    2.4458    0.0000 C   0  0  0  0  0  0  0  0  0  0  0  0
    6.6125    2.4458    0.0000 C   0  0  0  0  0  0  0  0  0  0  0  0
    9.8542    2.8208    0.0000 C   0  0  0  0  0  0  0  0  0  0  0  0
    5.9625    2.8208    0.0000 C   0  0  0  0  0  0  0  0  0  0  0  0
    6.6125    1.6958    0.0000 C   0  0  0  0  0  0  0  0  0  0  0  0
    1.9542    1.2708    0.0000 C   0  0  0  0  0  0  0  0  0  0  0  0
    2.4917    0.7375    0.0000 C   0  0  0  0  0  0  0  0  0  0  0  0
   11.1542    1.3208    0.0000 C   0  0  0  0  0  0  0  0  0  0  0  0
    3.2167    0.9333    0.0000 C   0  0  0  0  0  0  0  0  0  0  0  0
   11.1542    2.8208    0.0000 C   0  0  0  0  0  0  0  0  0  0  0  0
   11.8042    1.6958    0.0000 C   0  0  0  0  0  0  0  0  0  0  0  0
   11.8042    2.4458    0.0000 C   0  0  0  0  0  0  0  0  0  0  0  0
  2  5  1  0  0  0  0
  3  1  1  0  0  0  0
  4  1  1  0  0  0  0
  5 10  1  0  0  0  0
  6  1  2  0  0  0  0
  7  1  2  0  0  0  0
  8 20  1  0  0  0  0
  9  3  1  0  0  0  0
 10  9  2  0  0  0  0
 11  8  1  0  0  0  0
 12 21  2  0  0  0  0
 13  8  2  0  0  0  0
 14  2  1  0  0  0  0
 15  2  1  0  0  0  0
 16  2  1  0  0  0  0
 17  4  1  0  0  0  0
 18  4  2  0  0  0  0
 19 22  1  0  0  0  0
 20 19  1  0  0  0  0
 21 23  1  0  0  0  0
 22 24  2  0  0  0  0
 23 11  1  0  0  0  0
 24 18  1  0  0  0  0
 25 17  2  0  0  0  0
 26 27  1  0  0  0  0
 27 29  2  0  0  0  0
 28 12  1  0  0  0  0
 29  9  1  0  0  0  0
 30 21  1  0  0  0  0
 31 32  1  0  0  0  0
 32 30  2  0  0  0  0
 22 25  1  0  0  0  0
 26  5  2  0  0  0  0
 28 31  2  0  0  0  0
M  END
> <#>
1501

> <PLATE>
LAT019

> <ROW>
E

> <COL>
9

> <COORD>
E09

> <LATID>
LAT019E09

> <Supplier>
Chembridge

> <Suplier_CAT#>
7996970

> <Name>
Novel

> <Concentration_(mM)>
2.5

> <IC50_(µM)>
>100

> <Yeast_Active?>
-

> <Pubchem_CID>
2987231

$$$$
