
  -ISIS-  08130814242D

 18 17  0  0  0  0  0  0  0  0999 V2000
    7.0125   -4.2542    0.0000 C   0  0  0  0  0  0  0  0  0  0  0  0
    7.0125   -3.4292    0.0000 O   0  0  0  0  0  0  0  0  0  0  0  0
    6.3042   -5.5042    0.0000 O   0  0  0  0  0  0  0  0  0  0  0  0
    6.3000   -4.6667    0.0000 C   0  0  0  0  0  0  0  0  0  0  0  0
    5.5875   -5.9292    0.0000 C   0  0  0  0  0  0  0  0  0  0  0  0
    4.1542   -6.7542    0.0000 C   0  0  0  0  0  0  0  0  0  0  0  0
    8.4375   -6.7292    0.0000 N   0  0  3  0  0  0  0  0  0  0  0  0
    7.7250   -4.6667    0.0000 O   0  0  0  0  0  0  0  0  0  0  0  0
    3.4375   -7.1667    0.0000 Cl  0  0  0  0  0  0  0  0  0  0  0  0
    4.8750   -5.5167    0.0000 C   0  0  0  0  0  0  0  0  0  0  0  0
    5.5875   -6.7542    0.0000 C   0  0  0  0  0  0  0  0  0  0  0  0
    4.1542   -5.9292    0.0000 C   0  0  0  0  0  0  0  0  0  0  0  0
    4.8750   -7.1667    0.0000 C   0  0  0  0  0  0  0  0  0  0  0  0
    7.7250   -5.4917    0.0000 C   0  0  0  0  0  0  0  0  0  0  0  0
    8.4375   -5.9042    0.0000 C   0  0  0  0  0  0  0  0  0  0  0  0
    9.1542   -7.1542    0.0000 C   0  0  0  0  0  0  0  0  0  0  0  0
    7.7250   -7.1542    0.0000 C   0  0  0  0  0  0  0  0  0  0  0  0
    9.5417   -6.4625    0.0000 Cl  0  0  0  0  0  0  0  0  0  0  0  0
  2  1  2  0  0  0  0
  3  4  1  0  0  0  0
  4  1  1  0  0  0  0
  5  3  1  0  0  0  0
  6 12  2  0  0  0  0
  7 15  1  0  0  0  0
  8  1  1  0  0  0  0
  9  6  1  0  0  0  0
 10  5  2  0  0  0  0
 11  5  1  0  0  0  0
 12 10  1  0  0  0  0
 13 11  2  0  0  0  0
 14  8  1  0  0  0  0
 15 14  1  0  0  0  0
 16  7  1  0  0  0  0
 17  7  1  0  0  0  0
 13  6  1  0  0  0  0
M  END
> <#>
126

> <PLATE>
LAT002

> <ROW>
F

> <COL>
7

> <COORD>
F07

> <LATID>
LAT002F07

> <Supplier>
Microsource

> <Suplier_CAT#>
01503226

> <Name>
Meclofenoxate Hydrochloride

> <Concentration_(mM)>
2.5

> <IC50_(µM)>
0.16

> <Yeast_Active?>
-

> <Pubchem_CID>
4039

> <Description>
Nootropic

$$$$
