
  -ISIS-  08130814242D

 20 21  0  0  0  0  0  0  0  0999 V2000
    3.3542    0.6125    0.0000 O   0  0  0  0  0  0  0  0  0  0  0  0
   -0.0125    0.9000    0.0000 C   0  0  0  0  0  0  0  0  0  0  0  0
    2.6667    0.9208    0.0000 C   0  0  0  0  0  0  0  0  0  0  0  0
    1.3292    0.9333    0.0000 N   0  0  0  0  0  0  0  0  0  0  0  0
    3.9000    1.1708    0.0000 C   0  0  0  0  0  0  0  0  0  0  0  0
    2.7500    1.6958    0.0000 C   0  0  0  0  0  0  0  0  0  0  0  0
    3.5000    1.8500    0.0000 C   0  0  0  0  0  0  0  0  0  0  0  0
    2.0042    0.5458    0.0000 C   0  0  0  0  0  0  0  0  0  0  0  0
    0.6667    0.5458    0.0000 N   0  0  0  0  0  0  0  0  0  0  0  0
   -1.3708    0.9000    0.0000 O   0  0  0  0  0  0  0  0  0  0  0  0
   -2.0333    0.5125    0.0000 C   0  0  0  0  0  0  0  0  0  0  0  0
   -0.0125    1.6833    0.0000 O   0  0  0  0  0  0  0  0  0  0  0  0
   -2.0333   -0.2667    0.0000 C   0  0  0  0  0  0  0  0  0  0  0  0
   -0.6958    0.5125    0.0000 C   0  0  0  0  0  0  0  0  0  0  0  0
   -1.4000   -0.6042    0.0000 Br  0  0  0  0  0  0  0  0  0  0  0  0
    4.6875    1.1000    0.0000 C   0  0  0  0  0  0  0  0  0  0  0  0
   -2.6958    0.9000    0.0000 C   0  0  0  0  0  0  0  0  0  0  0  0
   -2.6958   -0.6542    0.0000 C   0  0  0  0  0  0  0  0  0  0  0  0
   -3.3708   -0.2667    0.0000 C   0  0  0  0  0  0  0  0  0  0  0  0
   -3.3708    0.5125    0.0000 C   0  0  0  0  0  0  0  0  0  0  0  0
  2  9  1  0  0  0  0
  3  1  1  0  0  0  0
  4  8  2  0  0  0  0
  5  1  1  0  0  0  0
  6  3  2  0  0  0  0
  7  5  2  0  0  0  0
  8  3  1  0  0  0  0
  9  4  1  0  0  0  0
 10 14  1  0  0  0  0
 11 10  1  0  0  0  0
 12  2  2  0  0  0  0
 13 11  2  0  0  0  0
 14  2  1  0  0  0  0
 15 13  1  0  0  0  0
 16  5  1  0  0  0  0
 17 11  1  0  0  0  0
 18 13  1  0  0  0  0
 19 20  1  0  0  0  0
 20 17  2  0  0  0  0
  6  7  1  0  0  0  0
 18 19  2  0  0  0  0
M  END
> <#>
1915

> <PLATE>
LAT024

> <ROW>
C

> <COL>
11

> <COORD>
C11

> <LATID>
LAT024C11

> <Supplier>
Chembridge

> <Suplier_CAT#>
5528286

> <Name>
Novel

> <Sec_Name>
151_E02

> <Concentration_(mM)>
2.5

> <IC50_(µM)>
17

> <Yeast_Active?>
-

> <Pubchem_CID>
871010

$$$$
