
  -ISIS-  08130814242D

 29 33  0  0  0  0  0  0  0  0999 V2000
   -2.7125   -0.6542    0.0000 N   0  0  3  0  0  0  0  0  0  0  0  0
   -1.8708   -1.0000    0.0000 C   0  0  0  0  0  0  0  0  0  0  0  0
   -3.2125    0.7625    0.0000 C   0  0  0  0  0  0  0  0  0  0  0  0
   -2.4500    0.2333    0.0000 C   0  0  0  0  0  0  0  0  0  0  0  0
   -3.6333   -0.6542    0.0000 N   0  0  0  0  0  0  0  0  0  0  0  0
   -3.9458    0.2333    0.0000 C   0  0  0  0  0  0  0  0  0  0  0  0
   -1.1333   -0.4875    0.0000 N   0  0  0  0  0  0  0  0  0  0  0  0
   -1.6000   -1.9042    0.0000 S   0  0  0  0  0  0  0  0  0  0  0  0
   -0.3958   -1.0000    0.0000 C   0  0  0  0  0  0  0  0  0  0  0  0
   -0.6833   -1.9042    0.0000 C   0  0  0  0  0  0  0  0  0  0  0  0
   -3.2125    1.7000    0.0000 C   0  0  0  0  0  0  0  0  0  0  0  0
   -1.5333    0.5333    0.0000 O   0  0  0  0  0  0  0  0  0  0  0  0
   -2.3833    2.1500    0.0000 N   0  0  0  0  0  0  0  0  0  0  0  0
   -4.8000    0.5333    0.0000 C   0  0  0  0  0  0  0  0  0  0  0  0
   -0.0125    1.6333    0.0000 O   0  0  0  0  0  0  0  0  0  0  0  0
   -0.7833    2.1125    0.0000 C   0  0  3  0  0  0  0  0  0  0  0  0
   -1.6000    1.6708    0.0000 C   0  0  0  0  0  0  0  0  0  0  0  0
    0.5500   -0.8167    0.0000 C   0  0  0  0  0  0  0  0  0  0  0  0
   -0.0500   -2.6000    0.0000 C   0  0  0  0  0  0  0  0  0  0  0  0
    0.7167    2.2208    0.0000 C   0  0  0  0  0  0  0  0  0  0  0  0
   -4.9833    1.4500    0.0000 C   0  0  0  0  0  0  0  0  0  0  0  0
   -5.5000   -0.0792    0.0000 C   0  0  0  0  0  0  0  0  0  0  0  0
   -0.5708    3.0000    0.0000 C   0  0  0  0  0  0  0  0  0  0  0  0
    0.3500    3.1083    0.0000 C   0  0  0  0  0  0  0  0  0  0  0  0
    0.8542   -2.4167    0.0000 C   0  0  0  0  0  0  0  0  0  0  0  0
    1.1500   -1.5375    0.0000 C   0  0  0  0  0  0  0  0  0  0  0  0
   -6.3792    0.2208    0.0000 C   0  0  0  0  0  0  0  0  0  0  0  0
   -5.8625    1.7500    0.0000 C   0  0  0  0  0  0  0  0  0  0  0  0
   -6.5542    1.1333    0.0000 C   0  0  0  0  0  0  0  0  0  0  0  0
  2  1  1  0  0  0  0
  3  4  1  0  0  0  0
  4  1  1  0  0  0  0
  5  1  1  0  0  0  0
  6  5  1  0  0  0  0
  7  2  2  0  0  0  0
  8  2  1  0  0  0  0
  9  7  1  0  0  0  0
 10  8  1  0  0  0  0
 11  3  1  0  0  0  0
 12  4  2  0  0  0  0
 13 11  2  0  0  0  0
 14  6  1  0  0  0  0
 15 16  1  0  0  0  0
 16 17  1  0  0  0  0
 17 13  1  0  0  0  0
 18  9  1  0  0  0  0
 19 10  1  0  0  0  0
 20 15  1  0  0  0  0
 21 14  2  0  0  0  0
 22 14  1  0  0  0  0
 23 16  1  0  0  0  0
 24 23  1  0  0  0  0
 25 19  2  0  0  0  0
 26 18  2  0  0  0  0
 27 22  2  0  0  0  0
 28 21  1  0  0  0  0
 29 27  1  0  0  0  0
  3  6  2  0  0  0  0
 10  9  2  0  0  0  0
 25 26  1  0  0  0  0
 28 29  2  0  0  0  0
 20 24  1  0  0  0  0
M  END
> <#>
1813

> <PLATE>
LAT023

> <ROW>
E

> <COL>
8

> <COORD>
E08

> <LATID>
LAT023E08

> <Supplier>
Chembridge

> <Suplier_CAT#>
5637841

> <Name>
Novel

> <Sec_Name>
194_H11

> <Concentration_(mM)>
2.5

> <IC50_(µM)>
13

> <Yeast_Active?>
+

> <Pubchem_CID>
NULL

$$$$
