
  -ISIS-  08130814242D

 14 16  0  0  0  0  0  0  0  0999 V2000
    5.1167   -2.2625    0.0000 C   0  0  2  0  0  0  0  0  0  0  0  0
    5.1167   -3.0875    0.0000 C   0  0  1  0  0  0  0  0  0  0  0  0
    5.9000   -3.3417    0.0000 C   0  0  0  0  0  0  0  0  0  0  0  0
    5.9000   -2.0042    0.0000 C   0  0  0  0  0  0  0  0  0  0  0  0
    6.3792   -2.6792    0.0000 O   0  0  0  0  0  0  0  0  0  0  0  0
    4.3292   -2.0042    0.0000 C   0  0  3  0  0  0  0  0  0  0  0  0
    4.3292   -3.3417    0.0000 C   0  0  3  0  0  0  0  0  0  0  0  0
    3.8500   -2.6792    0.0000 O   0  0  0  0  0  0  0  0  0  0  0  0
    6.1542   -4.1292    0.0000 O   0  0  0  0  0  0  0  0  0  0  0  0
    6.1542   -1.2167    0.0000 O   0  0  0  0  0  0  0  0  0  0  0  0
    3.2375   -1.9917    0.0000 C   0  0  0  0  0  0  0  0  0  0  0  0
    3.2667   -3.3417    0.0000 C   0  0  0  0  0  0  0  0  0  0  0  0
    4.9417   -3.8917    0.0000 C   0  0  0  0  0  0  0  0  0  0  0  0
    4.9417   -1.4542    0.0000 C   0  0  0  0  0  0  0  0  0  0  0  0
  2  1  1  0  0  0  0
  3  2  1  0  0  0  0
  4  1  1  0  0  0  0
  5  4  1  0  0  0  0
  6  1  1  0  0  0  0
  7  2  1  0  0  0  0
  8  6  1  0  0  0  0
  9  3  2  0  0  0  0
 10  4  2  0  0  0  0
 11  6  1  0  0  0  0
 12 11  1  0  0  0  0
  2 13  1  6  0  0  0
  1 14  1  6  0  0  0
  8  7  1  0  0  0  0
  5  3  1  0  0  0  0
 12  7  1  0  0  0  0
M  END
> <#>
161

> <PLATE>
LAT003

> <ROW>
A

> <COL>
2

> <COORD>
A02

> <LATID>
LAT003A02

> <Supplier>
Microsource

> <Suplier_CAT#>
01500814

> <Name>
Cantharidin

> <Concentration_(mM)>
2.5

> <IC50_(µM)>
1.8

> <Yeast_Active?>
-

> <Pubchem_CID>
2545

> <Description>
Irritant

> <Source>
active principle of cantharides and other insects

$$$$
