
  -ISIS-  08130814242D

 22 24  0  0  0  0  0  0  0  0999 V2000
    4.9917   -4.3042    0.0000 N   0  3  0  0  0  0  0  0  0  0  0  0
    1.5292   -3.1125    0.0000 N   0  0  3  0  0  0  0  0  0  0  0  0
    0.8500   -2.7167    0.0000 C   0  0  3  0  0  0  0  0  0  0  0  0
    4.3000   -3.8917    0.0000 C   0  0  0  0  0  0  0  0  0  0  0  0
    5.6625   -3.9125    0.0000 O   0  5  0  0  0  0  0  0  0  0  0  0
    2.2417   -2.7000    0.0000 C   0  0  0  0  0  0  0  0  0  0  0  0
    4.9917   -5.0792    0.0000 O   0  0  0  0  0  0  0  0  0  0  0  0
    0.8542   -1.8917    0.0000 C   0  0  0  0  0  0  0  0  0  0  0  0
    0.1375   -0.6625    0.0000 N   0  0  0  0  0  0  0  0  0  0  0  0
    3.6292   -4.2792    0.0000 C   0  0  0  0  0  0  0  0  0  0  0  0
    4.3000   -3.1125    0.0000 C   0  0  0  0  0  0  0  0  0  0  0  0
    2.9625   -3.1125    0.0000 C   0  0  0  0  0  0  0  0  0  0  0  0
    1.5292   -3.9042    0.0000 C   0  0  0  0  0  0  0  0  0  0  0  0
    2.9625   -3.8917    0.0000 C   0  0  0  0  0  0  0  0  0  0  0  0
    3.6292   -2.7167    0.0000 C   0  0  0  0  0  0  0  0  0  0  0  0
    0.1417   -1.4875    0.0000 C   0  0  0  0  0  0  0  0  0  0  0  0
    0.1667   -3.1125    0.0000 C   0  0  0  0  0  0  0  0  0  0  0  0
    1.5667   -1.4792    0.0000 C   0  0  0  0  0  0  0  0  0  0  0  0
    0.8542   -0.2417    0.0000 C   0  0  0  0  0  0  0  0  0  0  0  0
    0.8500   -4.3042    0.0000 C   0  0  0  0  0  0  0  0  0  0  0  0
    1.5667   -0.6542    0.0000 C   0  0  0  0  0  0  0  0  0  0  0  0
    0.1667   -3.9042    0.0000 C   0  0  0  0  0  0  0  0  0  0  0  0
  2  6  1  0  0  0  0
  3  2  1  0  0  0  0
  4  1  1  0  0  0  0
  5  1  1  0  0  0  0
  6 12  1  0  0  0  0
  7  1  2  0  0  0  0
  8  3  1  0  0  0  0
  9 16  2  0  0  0  0
 10  4  2  0  0  0  0
 11  4  1  0  0  0  0
 12 15  1  0  0  0  0
 13  2  1  0  0  0  0
 14 10  1  0  0  0  0
 15 11  2  0  0  0  0
 16  8  1  0  0  0  0
 17  3  1  0  0  0  0
 18  8  2  0  0  0  0
 19 21  2  0  0  0  0
 20 13  1  0  0  0  0
 21 18  1  0  0  0  0
 22 20  1  0  0  0  0
 14 12  2  0  0  0  0
 17 22  1  0  0  0  0
  9 19  1  0  0  0  0
M  CHG  2   1   1   5  -1
M  END
> <#>
1930

> <PLATE>
LAT025

> <ROW>
B

> <COL>
3

> <COORD>
B03

> <LATID>
LAT025B03

> <Supplier>
Chembridge

> <Suplier_CAT#>
5645070

> <Name>
Novel

> <Sec_Name>
196_A03

> <Concentration_(mM)>
2.5

> <IC50_(µM)>
7

> <Yeast_Active?>
-

> <Pubchem_CID>
3718199

$$$$
