
  -ISIS-  08130814242D

 30 33  0  0  0  0  0  0  0  0999 V2000
   -0.8000   -0.0500    0.0000 S   0  0  3  0  0  0  0  0  0  0  0  0
   -0.7833    0.8958    0.0000 N   0  0  3  0  0  0  0  0  0  0  0  0
    0.0375    1.3500    0.0000 C   0  0  0  0  0  0  0  0  0  0  0  0
    0.8792    2.7708    0.0000 N   0  0  3  0  0  0  0  0  0  0  0  0
    0.0542    2.3125    0.0000 C   0  0  0  0  0  0  0  0  0  0  0  0
    1.7000    2.2958    0.0000 C   0  0  0  0  0  0  0  0  0  0  0  0
    0.1375   -0.0667    0.0000 O   0  0  0  0  0  0  0  0  0  0  0  0
   -1.7458   -0.0292    0.0000 O   0  0  0  0  0  0  0  0  0  0  0  0
   -0.8208   -0.9875    0.0000 C   0  0  0  0  0  0  0  0  0  0  0  0
   -1.6000    1.3958    0.0000 C   0  0  0  0  0  0  0  0  0  0  0  0
    2.5292    2.7708    0.0000 C   0  0  0  0  0  0  0  0  0  0  0  0
    0.8792    3.7125    0.0000 C   0  0  0  0  0  0  0  0  0  0  0  0
   -0.7458    2.8125    0.0000 O   0  0  0  0  0  0  0  0  0  0  0  0
    2.5375    3.7083    0.0000 C   0  0  0  0  0  0  0  0  0  0  0  0
    1.7042    4.1792    0.0000 C   0  0  0  0  0  0  0  0  0  0  0  0
   -2.4000    0.9125    0.0000 C   0  0  0  0  0  0  0  0  0  0  0  0
   -1.6000    2.3500    0.0000 C   0  0  0  0  0  0  0  0  0  0  0  0
   -3.2208    1.3958    0.0000 C   0  0  0  0  0  0  0  0  0  0  0  0
   -2.4000    2.8125    0.0000 C   0  0  0  0  0  0  0  0  0  0  0  0
   -3.2458    2.3333    0.0000 C   0  0  0  0  0  0  0  0  0  0  0  0
    3.3500    2.2833    0.0000 C   0  0  0  0  0  0  0  0  0  0  0  0
   -1.6458   -1.4500    0.0000 C   0  0  0  0  0  0  0  0  0  0  0  0
   -0.0208   -1.4667    0.0000 C   0  0  0  0  0  0  0  0  0  0  0  0
    3.3667    4.1542    0.0000 C   0  0  0  0  0  0  0  0  0  0  0  0
   -4.0833    2.7958    0.0000 C   0  0  0  0  0  0  0  0  0  0  0  0
    4.1875    2.7458    0.0000 C   0  0  0  0  0  0  0  0  0  0  0  0
    4.2000    3.6833    0.0000 C   0  0  0  0  0  0  0  0  0  0  0  0
   -0.0458   -2.4042    0.0000 C   0  0  0  0  0  0  0  0  0  0  0  0
   -1.6625   -2.3875    0.0000 C   0  0  0  0  0  0  0  0  0  0  0  0
   -0.8625   -2.8667    0.0000 C   0  0  0  0  0  0  0  0  0  0  0  0
  2  1  1  0  0  0  0
  3  2  1  0  0  0  0
  4  5  1  0  0  0  0
  5  3  1  0  0  0  0
  6  4  1  0  0  0  0
  7  1  2  0  0  0  0
  8  1  2  0  0  0  0
  9  1  1  0  0  0  0
 10  2  1  0  0  0  0
 11  6  1  0  0  0  0
 12  4  1  0  0  0  0
 13  5  2  0  0  0  0
 14 15  1  0  0  0  0
 15 12  1  0  0  0  0
 16 10  1  0  0  0  0
 17 10  2  0  0  0  0
 18 16  2  0  0  0  0
 19 17  1  0  0  0  0
 20 19  2  0  0  0  0
 21 11  2  0  0  0  0
 22  9  2  0  0  0  0
 23  9  1  0  0  0  0
 24 14  2  0  0  0  0
 25 20  1  0  0  0  0
 26 21  1  0  0  0  0
 27 24  1  0  0  0  0
 28 23  2  0  0  0  0
 29 22  1  0  0  0  0
 30 28  1  0  0  0  0
 30 29  2  0  0  0  0
 20 18  1  0  0  0  0
 14 11  1  0  0  0  0
 27 26  2  0  0  0  0
M  END
> <#>
2043

> <PLATE>
LAT026

> <ROW>
C

> <COL>
7

> <COORD>
C07

> <LATID>
LAT026C07

> <Supplier>
Chembridge

> <Suplier_CAT#>
5529581

> <Sec_Name>
152_C08

> <Concentration_(mM)>
2.5

> <IC50_(µM)>
10

> <Yeast_Active?>
-

> <Pubchem_CID>
999998

$$$$
