
  -ISIS-  08130814242D

 24 26  0  0  0  0  0  0  0  0999 V2000
   -1.7125    1.3125    0.0000 N   0  0  3  0  0  0  0  0  0  0  0  0
   -0.8875    1.3125    0.0000 C   0  0  0  0  0  0  0  0  0  0  0  0
   -0.6333    2.1000    0.0000 N   0  0  0  0  0  0  0  0  0  0  0  0
   -1.3000    2.5833    0.0000 N   0  0  0  0  0  0  0  0  0  0  0  0
   -1.9708    2.1000    0.0000 N   0  0  0  0  0  0  0  0  0  0  0  0
   -0.4000    0.6458    0.0000 S   0  0  0  0  0  0  0  0  0  0  0  0
   -2.3000    0.7333    0.0000 C   0  0  0  0  0  0  0  0  0  0  0  0
    1.6625   -0.0625    0.0000 C   0  0  0  0  0  0  0  0  0  0  0  0
    2.0667   -0.7792    0.0000 C   0  0  0  0  0  0  0  0  0  0  0  0
    2.8917   -0.7750    0.0000 C   0  0  0  0  0  0  0  0  0  0  0  0
    0.8375   -0.0667    0.0000 C   0  0  0  0  0  0  0  0  0  0  0  0
    3.3042   -0.0625    0.0000 C   0  0  0  0  0  0  0  0  0  0  0  0
    0.4250    0.6458    0.0000 C   0  0  0  0  0  0  0  0  0  0  0  0
    2.0667    0.6500    0.0000 C   0  0  0  0  0  0  0  0  0  0  0  0
    0.4250   -0.7792    0.0000 O   0  0  0  0  0  0  0  0  0  0  0  0
    2.8875    0.6583    0.0000 C   0  0  0  0  0  0  0  0  0  0  0  0
   -3.1083    0.9583    0.0000 C   0  0  0  0  0  0  0  0  0  0  0  0
   -2.0958   -0.0667    0.0000 C   0  0  0  0  0  0  0  0  0  0  0  0
   -3.4875   -0.4292    0.0000 C   0  0  0  0  0  0  0  0  0  0  0  0
    3.3042   -1.4917    0.0000 O   0  0  0  0  0  0  0  0  0  0  0  0
   -3.6958    0.3708    0.0000 C   0  0  0  0  0  0  0  0  0  0  0  0
   -2.6833   -0.6500    0.0000 C   0  0  0  0  0  0  0  0  0  0  0  0
   -4.0708   -1.0125    0.0000 F   0  0  0  0  0  0  0  0  0  0  0  0
    4.1292   -0.0542    0.0000 O   0  0  0  0  0  0  0  0  0  0  0  0
  2  1  1  0  0  0  0
  3  2  2  0  0  0  0
  4  5  2  0  0  0  0
  5  1  1  0  0  0  0
  6  2  1  0  0  0  0
  7  1  1  0  0  0  0
  8 11  1  0  0  0  0
  9  8  2  0  0  0  0
 10  9  1  0  0  0  0
 11 13  1  0  0  0  0
 12 16  1  0  0  0  0
 13  6  1  0  0  0  0
 14  8  1  0  0  0  0
 15 11  2  0  0  0  0
 16 14  2  0  0  0  0
 17  7  2  0  0  0  0
 18  7  1  0  0  0  0
 19 22  1  0  0  0  0
 20 10  1  0  0  0  0
 21 17  1  0  0  0  0
 22 18  2  0  0  0  0
 23 19  1  0  0  0  0
 24 12  1  0  0  0  0
  4  3  1  0  0  0  0
 19 21  2  0  0  0  0
 12 10  2  0  0  0  0
M  END
> <#>
1383

> <PLATE>
LAT018

> <ROW>
G

> <COL>
4

> <COORD>
G04

> <LATID>
LAT018G04

> <Supplier>
Chembridge

> <Suplier_CAT#>
7764114

> <Name>
Novel

> <Concentration_(mM)>
2.5

> <IC50_(µM)>
inactive

> <Yeast_Active?>
-

> <Pubchem_CID>
713665

$$$$
