
  -ISIS-  08130814242D

 19 20  0  0  0  0  0  0  0  0999 V2000
    4.6167   -0.3042    0.0000 C   0  0  0  0  0  0  0  0  0  0  0  0
    3.7000   -0.3167    0.0000 C   0  0  0  0  0  0  0  0  0  0  0  0
    1.8167   -0.3000    0.0000 C   0  0  0  0  0  0  0  0  0  0  0  0
    0.8875   -0.3000    0.0000 C   0  0  0  0  0  0  0  0  0  0  0  0
    5.0792   -1.1000    0.0000 O   0  0  0  0  0  0  0  0  0  0  0  0
    3.2292   -1.1292    0.0000 C   0  0  0  0  0  0  0  0  0  0  0  0
    3.2292    0.4708    0.0000 C   0  0  0  0  0  0  0  0  0  0  0  0
    2.2875   -1.1292    0.0000 C   0  0  0  0  0  0  0  0  0  0  0  0
    2.2875    0.4708    0.0000 C   0  0  0  0  0  0  0  0  0  0  0  0
    0.4167   -1.1042    0.0000 C   0  0  0  0  0  0  0  0  0  0  0  0
    0.4167    0.4958    0.0000 C   0  0  0  0  0  0  0  0  0  0  0  0
    5.0667    0.5000    0.0000 O   0  0  0  0  0  0  0  0  0  0  0  0
   -0.9958   -0.3000    0.0000 C   0  0  0  0  0  0  0  0  0  0  0  0
   -0.5208    0.4958    0.0000 C   0  0  0  0  0  0  0  0  0  0  0  0
   -0.5208   -1.1042    0.0000 C   0  0  0  0  0  0  0  0  0  0  0  0
   -1.9208   -0.3000    0.0000 O   0  0  0  0  0  0  0  0  0  0  0  0
   -2.3833   -1.1000    0.0000 C   0  0  0  0  0  0  0  0  0  0  0  0
   -3.2958   -1.1000    0.0000 C   0  0  0  0  0  0  0  0  0  0  0  0
   -3.7500   -0.3000    0.0000 C   0  0  0  0  0  0  0  0  0  0  0  0
  2  1  1  0  0  0  0
  3  9  2  0  0  0  0
  4  3  1  0  0  0  0
  5  1  2  0  0  0  0
  6  2  1  0  0  0  0
  7  2  2  0  0  0  0
  8  6  2  0  0  0  0
  9  7  1  0  0  0  0
 10  4  1  0  0  0  0
 11  4  2  0  0  0  0
 12  1  1  0  0  0  0
 13 14  2  0  0  0  0
 14 11  1  0  0  0  0
 15 10  2  0  0  0  0
 16 13  1  0  0  0  0
 17 16  1  0  0  0  0
 18 17  1  0  0  0  0
 19 18  1  0  0  0  0
  3  8  1  0  0  0  0
 13 15  1  0  0  0  0
M  END
> <#>
652

> <PLATE>
LAT009

> <ROW>
D

> <COL>
3

> <COORD>
D03

> <LATID>
LAT009D03

> <Supplier>
Chembridge

> <Suplier_CAT#>
5526577

> <Name>
Novel

> <Sec_Name>
147_G09

> <Concentration_(mM)>
2.5

> <IC50_(µM)>
>100

> <Yeast_Active?>
-

> <Pubchem_CID>
2063613

$$$$
