
  -ISIS-  08130814242D

 22 23  0  0  0  0  0  0  0  0999 V2000
    0.3042    0.4625    0.0000 S   0  0  3  0  0  0  0  0  0  0  0  0
    0.6375    1.0333    0.0000 N   0  0  0  0  0  0  0  0  0  0  0  0
   -0.0500   -0.0917    0.0000 C   0  0  0  0  0  0  0  0  0  0  0  0
    1.3000    1.0333    0.0000 C   0  0  0  0  0  0  0  0  0  0  0  0
    1.6292    1.6125    0.0000 C   0  0  0  0  0  0  0  0  0  0  0  0
    0.2667   -0.7000    0.0000 C   0  0  0  0  0  0  0  0  0  0  0  0
   -0.2458    0.8000    0.0000 O   0  0  0  0  0  0  0  0  0  0  0  0
    0.8792    0.1000    0.0000 O   0  0  0  0  0  0  0  0  0  0  0  0
   -0.1000   -1.2792    0.0000 C   0  0  0  0  0  0  0  0  0  0  0  0
    2.2875    1.6125    0.0000 C   0  0  0  0  0  0  0  0  0  0  0  0
   -0.7833   -1.2500    0.0000 C   0  0  0  0  0  0  0  0  0  0  0  0
   -0.7208   -0.0542    0.0000 C   0  0  0  0  0  0  0  0  0  0  0  0
   -1.0958   -0.6375    0.0000 C   0  0  0  0  0  0  0  0  0  0  0  0
    2.6167    2.1958    0.0000 Cl  0  0  0  0  0  0  0  0  0  0  0  0
    0.2000   -1.8667    0.0000 O   0  0  0  0  0  0  0  0  0  0  0  0
   -1.1500   -1.8167    0.0000 O   0  0  0  0  0  0  0  0  0  0  0  0
    1.6292    0.4500    0.0000 C   0  0  0  0  0  0  0  0  0  0  0  0
    1.3000    2.1958    0.0000 C   0  0  0  0  0  0  0  0  0  0  0  0
    2.2875    0.4500    0.0000 C   0  0  0  0  0  0  0  0  0  0  0  0
    2.6167    1.0333    0.0000 C   0  0  0  0  0  0  0  0  0  0  0  0
   -0.1625   -2.4375    0.0000 C   0  0  0  0  0  0  0  0  0  0  0  0
   -1.8125   -1.7875    0.0000 C   0  0  0  0  0  0  0  0  0  0  0  0
  2  1  1  0  0  0  0
  3  1  1  0  0  0  0
  4  2  1  0  0  0  0
  5  4  1  0  0  0  0
  6  3  2  0  0  0  0
  7  1  2  0  0  0  0
  8  1  2  0  0  0  0
  9  6  1  0  0  0  0
 10  5  2  0  0  0  0
 11 13  1  0  0  0  0
 12  3  1  0  0  0  0
 13 12  2  0  0  0  0
 14 10  1  0  0  0  0
 15  9  1  0  0  0  0
 16 11  1  0  0  0  0
 17  4  2  0  0  0  0
 18  5  1  0  0  0  0
 19 17  1  0  0  0  0
 20 19  2  0  0  0  0
 21 15  1  0  0  0  0
 22 16  1  0  0  0  0
 11  9  2  0  0  0  0
 10 20  1  0  0  0  0
M  END
> <#>
761

> <PLATE>
LAT010

> <ROW>
A

> <COL>
7

> <COORD>
A07

> <LATID>
LAT010A07

> <Supplier>
Chembridge

> <Suplier_CAT#>
5607767

> <Name>
Novel

> <Sec_Name>
184_F05

> <Concentration_(mM)>
2.5

> <IC50_(µM)>
95

> <Yeast_Active?>
-

> <Pubchem_CID>
740566

$$$$
