
  -ISIS-  08130814242D

 28 31  0  0  0  0  0  0  0  0999 V2000
   -1.4458   -0.3542    0.0000 C   0  0  0  0  0  0  0  0  0  0  0  0
   -0.7625   -0.7792    0.0000 N   0  0  3  0  0  0  0  0  0  0  0  0
    0.6375   -1.5792    0.0000 N   0  0  3  0  0  0  0  0  0  0  0  0
   -2.1458   -0.7542    0.0000 C   0  0  0  0  0  0  0  0  0  0  0  0
    1.3542   -1.9792    0.0000 C   0  0  3  0  0  0  0  0  0  0  0  0
   -1.4458    0.4458    0.0000 O   0  0  0  0  0  0  0  0  0  0  0  0
   -0.7625   -1.5792    0.0000 C   0  0  0  0  0  0  0  0  0  0  0  0
   -0.0625   -0.3792    0.0000 C   0  0  0  0  0  0  0  0  0  0  0  0
    0.6375   -0.7792    0.0000 C   0  0  0  0  0  0  0  0  0  0  0  0
   -0.0625   -1.9792    0.0000 C   0  0  0  0  0  0  0  0  0  0  0  0
   -2.8208   -0.3542    0.0000 C   0  0  0  0  0  0  0  0  0  0  0  0
    2.0375   -1.5792    0.0000 C   0  0  0  0  0  0  0  0  0  0  0  0
    1.3542   -2.7792    0.0000 C   0  0  0  0  0  0  0  0  0  0  0  0
   -2.1458   -1.5542    0.0000 C   0  0  0  0  0  0  0  0  0  0  0  0
   -2.8208    0.4625    0.0000 C   0  0  0  0  0  0  0  0  0  0  0  0
   -3.5208   -0.7542    0.0000 C   0  0  0  0  0  0  0  0  0  0  0  0
    2.7375   -1.9792    0.0000 C   0  0  0  0  0  0  0  0  0  0  0  0
    0.6542   -3.1792    0.0000 C   0  0  0  0  0  0  0  0  0  0  0  0
    2.0542   -3.1792    0.0000 C   0  0  0  0  0  0  0  0  0  0  0  0
    2.0375   -0.7792    0.0000 C   0  0  0  0  0  0  0  0  0  0  0  0
   -2.8208   -1.9542    0.0000 C   0  0  0  0  0  0  0  0  0  0  0  0
   -3.5458   -1.5542    0.0000 C   0  0  0  0  0  0  0  0  0  0  0  0
    0.6542   -3.9792    0.0000 C   0  0  0  0  0  0  0  0  0  0  0  0
    2.0542   -3.9792    0.0000 C   0  0  0  0  0  0  0  0  0  0  0  0
    3.4375   -1.5792    0.0000 C   0  0  0  0  0  0  0  0  0  0  0  0
    2.7167   -0.3792    0.0000 C   0  0  0  0  0  0  0  0  0  0  0  0
    1.3542   -4.3792    0.0000 C   0  0  0  0  0  0  0  0  0  0  0  0
    3.4375   -0.7792    0.0000 C   0  0  0  0  0  0  0  0  0  0  0  0
  2  1  1  0  0  0  0
  3  9  1  0  0  0  0
  4  1  1  0  0  0  0
  5  3  1  0  0  0  0
  6  1  2  0  0  0  0
  7  2  1  0  0  0  0
  8  2  1  0  0  0  0
  9  8  1  0  0  0  0
 10  7  1  0  0  0  0
 11  4  2  0  0  0  0
 12  5  1  0  0  0  0
 13  5  1  0  0  0  0
 14  4  1  0  0  0  0
 15 11  1  0  0  0  0
 16 11  1  0  0  0  0
 17 12  1  0  0  0  0
 18 13  1  0  0  0  0
 19 13  2  0  0  0  0
 20 12  2  0  0  0  0
 21 14  2  0  0  0  0
 22 21  1  0  0  0  0
 23 18  2  0  0  0  0
 24 19  1  0  0  0  0
 25 17  2  0  0  0  0
 26 20  1  0  0  0  0
 27 24  2  0  0  0  0
 28 26  2  0  0  0  0
 10  3  1  0  0  0  0
 22 16  2  0  0  0  0
 23 27  1  0  0  0  0
 25 28  1  0  0  0  0
M  END
> <#>
1030

> <PLATE>
LAT013

> <ROW>
F

> <COL>
10

> <COORD>
F10

> <LATID>
LAT013F10

> <Supplier>
Chembridge

> <Suplier_CAT#>
5568733

> <Name>
Novel

> <Sec_Name>
174_C06

> <Concentration_(mM)>
2.5

> <IC50_(µM)>
8.6

> <Yeast_Active?>
-

> <Pubchem_CID>
1068619

$$$$
