
  -ISIS-  08130814242D

 37 41  0  0  0  0  0  0  0  0999 V2000
   -1.6000    1.9000    0.0000 C   0  0  0  0  0  0  0  0  0  0  0  0
   -0.8625    1.4625    0.0000 N   0  0  0  0  0  0  0  0  0  0  0  0
   -2.3625    1.4625    0.0000 N   0  0  0  0  0  0  0  0  0  0  0  0
   -1.6000    0.1625    0.0000 N   0  0  0  0  0  0  0  0  0  0  0  0
   -0.8625    0.6000    0.0000 C   0  0  0  0  0  0  0  0  0  0  0  0
   -2.3833    0.6000    0.0000 C   0  0  0  0  0  0  0  0  0  0  0  0
   -1.6000    2.7708    0.0000 N   0  0  3  0  0  0  0  0  0  0  0  0
    0.6792    0.5833    0.0000 N   0  0  0  0  0  0  0  0  0  0  0  0
   -3.1833   -0.7000    0.0000 N   0  0  0  0  0  0  0  0  0  0  0  0
   -0.1000    0.1458    0.0000 N   0  0  0  0  0  0  0  0  0  0  0  0
   -3.1625    0.1833    0.0000 N   0  0  0  0  0  0  0  0  0  0  0  0
   -2.3625    3.2083    0.0000 C   0  0  0  0  0  0  0  0  0  0  0  0
   -0.8458    3.2083    0.0000 C   0  0  0  0  0  0  0  0  0  0  0  0
   -3.2458   -3.3167    0.0000 N   0  0  0  0  0  0  0  0  0  0  0  0
    2.9375    1.8458    0.0000 N   0  0  0  0  0  0  0  0  0  0  0  0
   -3.9458   -1.1167    0.0000 C   0  0  0  0  0  0  0  0  0  0  0  0
    1.4167    0.1458    0.0000 C   0  0  0  0  0  0  0  0  0  0  0  0
    2.1792    0.5625    0.0000 C   0  0  0  0  0  0  0  0  0  0  0  0
   -3.9625   -2.0000    0.0000 C   0  0  0  0  0  0  0  0  0  0  0  0
   -3.2208   -2.4375    0.0000 C   0  0  0  0  0  0  0  0  0  0  0  0
    2.1792    1.4208    0.0000 C   0  0  0  0  0  0  0  0  0  0  0  0
    3.6792    1.4000    0.0000 C   0  0  0  0  0  0  0  0  0  0  0  0
   -4.0000   -3.7167    0.0000 C   0  0  0  0  0  0  0  0  0  0  0  0
   -2.3625    4.0542    0.0000 C   0  0  0  0  0  0  0  0  0  0  0  0
   -0.1000    2.7708    0.0000 C   0  0  0  0  0  0  0  0  0  0  0  0
   -0.8458    4.0542    0.0000 C   0  0  0  0  0  0  0  0  0  0  0  0
   -3.1000    2.7708    0.0000 C   0  0  0  0  0  0  0  0  0  0  0  0
   -4.7208   -2.4167    0.0000 C   0  0  0  0  0  0  0  0  0  0  0  0
    2.9167    0.1208    0.0000 C   0  0  0  0  0  0  0  0  0  0  0  0
   -4.7458   -3.2792    0.0000 C   0  0  0  0  0  0  0  0  0  0  0  0
    3.6542    0.5458    0.0000 C   0  0  0  0  0  0  0  0  0  0  0  0
    0.6542    3.1833    0.0000 C   0  0  0  0  0  0  0  0  0  0  0  0
   -0.0833    4.4792    0.0000 C   0  0  0  0  0  0  0  0  0  0  0  0
   -3.8625    3.2083    0.0000 C   0  0  0  0  0  0  0  0  0  0  0  0
   -3.1000    4.5000    0.0000 C   0  0  0  0  0  0  0  0  0  0  0  0
    0.6792    4.0292    0.0000 C   0  0  0  0  0  0  0  0  0  0  0  0
   -3.8625    4.0542    0.0000 C   0  0  0  0  0  0  0  0  0  0  0  0
  2  1  1  0  0  0  0
  3  1  2  0  0  0  0
  4  6  2  0  0  0  0
  5  2  2  0  0  0  0
  6  3  1  0  0  0  0
  7  1  1  0  0  0  0
  8 10  1  0  0  0  0
  9 11  1  0  0  0  0
 10  5  1  0  0  0  0
 11  6  1  0  0  0  0
 12  7  1  0  0  0  0
 13  7  1  0  0  0  0
 14 20  1  0  0  0  0
 15 21  1  0  0  0  0
 16  9  2  0  0  0  0
 17  8  2  0  0  0  0
 18 17  1  0  0  0  0
 19 16  1  0  0  0  0
 20 19  2  0  0  0  0
 21 18  2  0  0  0  0
 22 31  1  0  0  0  0
 23 30  1  0  0  0  0
 24 12  1  0  0  0  0
 25 13  1  0  0  0  0
 26 13  2  0  0  0  0
 27 12  2  0  0  0  0
 28 19  1  0  0  0  0
 29 18  1  0  0  0  0
 30 28  2  0  0  0  0
 31 29  2  0  0  0  0
 32 25  2  0  0  0  0
 33 26  1  0  0  0  0
 34 27  1  0  0  0  0
 35 24  2  0  0  0  0
 36 33  2  0  0  0  0
 37 34  2  0  0  0  0
  4  5  1  0  0  0  0
 36 32  1  0  0  0  0
 37 35  1  0  0  0  0
 23 14  2  0  0  0  0
 22 15  2  0  0  0  0
M  END
> <#>
1632

> <PLATE>
LAT021

> <ROW>
H

> <COL>
5

> <COORD>
H05

> <LATID>
LAT021H05

> <Supplier>
Chembridge

> <Suplier_CAT#>
5114042

> <Name>
Novel

> <Concentration_(mM)>
2.5

> <IC50_(µM)>
inactive

> <Yeast_Active?>
-

> <Pubchem_CID>
2828092

$$$$
