
  -ISIS-  08130814242D

 30 33  0  0  0  0  0  0  0  0999 V2000
   -1.7333    0.4625    0.0000 N   0  0  3  0  0  0  0  0  0  0  0  0
   -2.3708    0.8708    0.0000 C   0  0  0  0  0  0  0  0  0  0  0  0
   -2.3708    1.6000    0.0000 N   0  0  0  0  0  0  0  0  0  0  0  0
   -1.0708    0.8708    0.0000 C   0  0  0  0  0  0  0  0  0  0  0  0
   -1.0708    1.6000    0.0000 N   0  0  0  0  0  0  0  0  0  0  0  0
    1.0167    0.4625    0.0000 C   0  0  0  0  0  0  0  0  0  0  0  0
   -0.3625    0.4625    0.0000 S   0  0  0  0  0  0  0  0  0  0  0  0
   -1.7333   -0.2375    0.0000 C   0  0  0  0  0  0  0  0  0  0  0  0
    2.4000    0.4625    0.0000 N   0  0  0  0  0  0  0  0  0  0  0  0
   -3.0708    0.4625    0.0000 C   0  0  0  0  0  0  0  0  0  0  0  0
    1.7042    0.8708    0.0000 N   0  0  0  0  0  0  0  0  0  0  0  0
    1.0167   -0.3292    0.0000 O   0  0  0  0  0  0  0  0  0  0  0  0
    4.5792   -0.7000    0.0000 N   0  0  0  0  0  0  0  0  0  0  0  0
   -4.4583   -0.3667    0.0000 N   0  0  0  0  0  0  0  0  0  0  0  0
    0.3042    0.8625    0.0000 C   0  0  0  0  0  0  0  0  0  0  0  0
    3.1042    0.8708    0.0000 C   0  0  0  0  0  0  0  0  0  0  0  0
    3.8167    0.4958    0.0000 C   0  0  0  0  0  0  0  0  0  0  0  0
    3.8167   -0.3042    0.0000 C   0  0  0  0  0  0  0  0  0  0  0  0
   -3.7625   -0.7375    0.0000 C   0  0  0  0  0  0  0  0  0  0  0  0
   -4.4583    0.4625    0.0000 C   0  0  0  0  0  0  0  0  0  0  0  0
    5.2375   -0.3042    0.0000 C   0  0  0  0  0  0  0  0  0  0  0  0
   -1.0458   -0.6292    0.0000 C   0  0  0  0  0  0  0  0  0  0  0  0
   -2.4000   -0.6167    0.0000 C   0  0  0  0  0  0  0  0  0  0  0  0
   -3.7708    0.8708    0.0000 C   0  0  0  0  0  0  0  0  0  0  0  0
   -3.0708   -0.3667    0.0000 C   0  0  0  0  0  0  0  0  0  0  0  0
    4.5667    0.9000    0.0000 C   0  0  0  0  0  0  0  0  0  0  0  0
    5.2375    0.4958    0.0000 C   0  0  0  0  0  0  0  0  0  0  0  0
   -1.0458   -1.3875    0.0000 C   0  0  0  0  0  0  0  0  0  0  0  0
   -2.4000   -1.3792    0.0000 C   0  0  0  0  0  0  0  0  0  0  0  0
   -1.7333   -1.7542    0.0000 C   0  0  0  0  0  0  0  0  0  0  0  0
  2  1  1  0  0  0  0
  3  2  2  0  0  0  0
  4  1  1  0  0  0  0
  5  4  2  0  0  0  0
  6 15  1  0  0  0  0
  7  4  1  0  0  0  0
  8  1  1  0  0  0  0
  9 11  1  0  0  0  0
 10  2  1  0  0  0  0
 11  6  1  0  0  0  0
 12  6  2  0  0  0  0
 13 18  2  0  0  0  0
 14 19  1  0  0  0  0
 15  7  1  0  0  0  0
 16  9  2  0  0  0  0
 17 16  1  0  0  0  0
 18 17  1  0  0  0  0
 19 25  2  0  0  0  0
 20 24  1  0  0  0  0
 21 27  2  0  0  0  0
 22  8  1  0  0  0  0
 23  8  2  0  0  0  0
 24 10  2  0  0  0  0
 25 10  1  0  0  0  0
 26 17  2  0  0  0  0
 27 26  1  0  0  0  0
 28 22  2  0  0  0  0
 29 23  1  0  0  0  0
 30 29  2  0  0  0  0
  3  5  1  0  0  0  0
 28 30  1  0  0  0  0
 14 20  2  0  0  0  0
 13 21  1  0  0  0  0
M  END
> <#>
1695

> <PLATE>
LAT022

> <ROW>
G

> <COL>
3

> <COORD>
G03

> <LATID>
LAT022G03

> <Supplier>
Chembridge

> <Suplier_CAT#>
5765144

> <Name>
Novel

> <Concentration_(mM)>
2.5

> <IC50_(µM)>
53

> <Yeast_Active?>
-

> <Pubchem_CID>
1365653

$$$$
