
  -ISIS-  08130814242D

 22 24  0  0  0  0  0  0  0  0999 V2000
    2.2042   -0.7000    0.0000 N   0  0  3  0  0  0  0  0  0  0  0  0
    1.0000   -0.9500    0.0000 C   0  0  0  0  0  0  0  0  0  0  0  0
    0.3667    0.1458    0.0000 C   0  0  0  0  0  0  0  0  0  0  0  0
    2.3042    0.5125    0.0000 N   0  0  0  0  0  0  0  0  0  0  0  0
    1.2000    1.0333    0.0000 C   0  0  0  0  0  0  0  0  0  0  0  0
   -0.8833    0.1458    0.0000 N   0  0  0  0  0  0  0  0  0  0  0  0
   -1.5333    1.2000    0.0000 N   0  0  0  0  0  0  0  0  0  0  0  0
   -2.7958    1.2208    0.0000 C   0  0  0  0  0  0  0  0  0  0  0  0
    0.4875   -2.1292    0.0000 O   0  0  0  0  0  0  0  0  0  0  0  0
    3.1375   -1.5000    0.0000 C   0  0  0  0  0  0  0  0  0  0  0  0
   -3.4125    2.2958    0.0000 C   0  0  0  0  0  0  0  0  0  0  0  0
   -2.7958    3.3625    0.0000 Cl  0  0  0  0  0  0  0  0  0  0  0  0
    0.9542    2.2333    0.0000 C   0  0  0  0  0  0  0  0  0  0  0  0
   -3.4125    0.1208    0.0000 C   0  0  0  0  0  0  0  0  0  0  0  0
    2.9167   -2.7167    0.0000 C   0  0  0  0  0  0  0  0  0  0  0  0
    4.3000   -1.1042    0.0000 C   0  0  0  0  0  0  0  0  0  0  0  0
   -4.6583    2.2958    0.0000 C   0  0  0  0  0  0  0  0  0  0  0  0
   -4.6583    0.1500    0.0000 C   0  0  0  0  0  0  0  0  0  0  0  0
    3.8667   -3.5292    0.0000 C   0  0  0  0  0  0  0  0  0  0  0  0
    5.2375   -1.8875    0.0000 C   0  0  0  0  0  0  0  0  0  0  0  0
   -5.2708    1.2458    0.0000 C   0  0  0  0  0  0  0  0  0  0  0  0
    5.0292   -3.1167    0.0000 C   0  0  0  0  0  0  0  0  0  0  0  0
  2  1  1  0  0  0  0
  3  2  1  0  0  0  0
  4  1  1  0  0  0  0
  5  4  2  0  0  0  0
  6  3  2  0  0  0  0
  7  6  1  0  0  0  0
  8  7  1  0  0  0  0
  9  2  2  0  0  0  0
 10  1  1  0  0  0  0
 11  8  2  0  0  0  0
 12 11  1  0  0  0  0
 13  5  1  0  0  0  0
 14  8  1  0  0  0  0
 15 10  1  0  0  0  0
 16 10  2  0  0  0  0
 17 11  1  0  0  0  0
 18 14  2  0  0  0  0
 19 15  2  0  0  0  0
 20 16  1  0  0  0  0
 21 18  1  0  0  0  0
 22 20  2  0  0  0  0
  5  3  1  0  0  0  0
 22 19  1  0  0  0  0
 17 21  2  0  0  0  0
M  END
> <#>
1058

> <PLATE>
LAT014

> <ROW>
B

> <COL>
4

> <COORD>
B04

> <LATID>
LAT014B04

> <Supplier>
Chembridge

> <Suplier_CAT#>
5148779

> <Name>
Novel

> <Concentration_(mM)>
2.5

> <IC50_(µM)>
inactive

> <Yeast_Active?>
-

> <Pubchem_CID>
NULL

$$$$
