
  -ISIS-  08130814242D

 25 27  0  0  0  0  0  0  0  0999 V2000
   -1.9500   -2.6667    0.0000 N   0  3  0  0  0  0  0  0  0  0  0  0
   -1.2958   -2.2792    0.0000 C   0  0  0  0  0  0  0  0  0  0  0  0
    0.0292   -1.5292    0.0000 C   0  0  0  0  0  0  0  0  0  0  0  0
   -1.2958   -1.5292    0.0000 C   0  0  0  0  0  0  0  0  0  0  0  0
    1.8167    0.8125    0.0000 C   0  0  0  0  0  0  0  0  0  0  0  0
    1.4292    0.1500    0.0000 N   0  0  3  0  0  0  0  0  0  0  0  0
    0.6667   -1.1500    0.0000 N   0  0  3  0  0  0  0  0  0  0  0  0
   -0.6208   -1.1500    0.0000 C   0  0  0  0  0  0  0  0  0  0  0  0
    0.0292   -2.2792    0.0000 C   0  0  0  0  0  0  0  0  0  0  0  0
   -0.6208   -2.6667    0.0000 C   0  0  0  0  0  0  0  0  0  0  0  0
   -2.6000   -2.2875    0.0000 O   0  5  0  0  0  0  0  0  0  0  0  0
   -1.9500   -3.4375    0.0000 O   0  0  0  0  0  0  0  0  0  0  0  0
    0.6667    0.1500    0.0000 C   0  0  0  0  0  0  0  0  0  0  0  0
    1.8042   -0.5000    0.0000 C   0  0  0  0  0  0  0  0  0  0  0  0
    1.4292   -1.1500    0.0000 C   0  0  0  0  0  0  0  0  0  0  0  0
    0.2875   -0.5000    0.0000 C   0  0  0  0  0  0  0  0  0  0  0  0
    2.5792    0.8125    0.0000 O   0  0  0  0  0  0  0  0  0  0  0  0
    1.4375    1.4833    0.0000 C   0  0  0  0  0  0  0  0  0  0  0  0
   -0.6208   -0.3875    0.0000 F   0  0  0  0  0  0  0  0  0  0  0  0
   -0.6208   -3.4042    0.0000 C   0  0  0  0  0  0  0  0  0  0  0  0
    0.6667    1.4958    0.0000 C   0  0  0  0  0  0  0  0  0  0  0  0
    1.8042    2.1208    0.0000 C   0  0  0  0  0  0  0  0  0  0  0  0
    0.2875    2.1458    0.0000 C   0  0  0  0  0  0  0  0  0  0  0  0
    1.4375    2.7708    0.0000 C   0  0  0  0  0  0  0  0  0  0  0  0
    0.6667    2.7958    0.0000 C   0  0  0  0  0  0  0  0  0  0  0  0
  2  1  1  0  0  0  0
  3  9  2  0  0  0  0
  4  2  1  0  0  0  0
  5  6  1  0  0  0  0
  6 13  1  0  0  0  0
  7  3  1  0  0  0  0
  8  4  2  0  0  0  0
  9 10  1  0  0  0  0
 10  2  2  0  0  0  0
 11  1  1  0  0  0  0
 12  1  2  0  0  0  0
 13 16  1  0  0  0  0
 14 15  1  0  0  0  0
 15  7  1  0  0  0  0
 16  7  1  0  0  0  0
 17  5  2  0  0  0  0
 18  5  1  0  0  0  0
 19  8  1  0  0  0  0
 20 10  1  0  0  0  0
 21 18  1  0  0  0  0
 22 18  2  0  0  0  0
 23 21  2  0  0  0  0
 24 22  1  0  0  0  0
 25 24  2  0  0  0  0
  8  3  1  0  0  0  0
 14  6  1  0  0  0  0
 23 25  1  0  0  0  0
M  CHG  2   1   1  11  -1
M  END
> <#>
1754

> <PLATE>
LAT022

> <ROW>
B

> <COL>
11

> <COORD>
B11

> <LATID>
LAT022B11

> <Supplier>
Chembridge

> <Suplier_CAT#>
5784320

> <Name>
Novel

> <Sec_Name>
247_F06

> <Concentration_(mM)>
2.5

> <IC50_(µM)>
8

> <Yeast_Active?>
-

> <Pubchem_CID>
NULL

$$$$
