
  -ISIS-  08130814242D

 31 33  0  0  0  0  0  0  0  0999 V2000
   -0.2976   -2.5917    0.0000 C   0  0  0  0  0  0  0  0  0  0  0  0
    0.5245   -1.2829    0.0000 N   0  0  0  0  0  0  0  0  0  0  0  0
   -0.2643   -1.7000    0.0000 C   0  0  1  0  0  0  0  0  0  0  0  0
   -1.0200   -1.2253    0.0000 C   0  0  0  0  0  0  0  0  0  0  0  0
   -1.8088   -1.6424    0.0000 C   0  0  0  0  0  0  0  0  0  0  0  0
   -2.5644   -1.1678    0.0000 C   0  0  0  0  0  0  0  0  0  0  0  0
   -3.3533   -1.5848    0.0000 O   0  0  0  0  0  0  0  0  0  0  0  0
   -2.5312   -0.2761    0.0000 O   0  0  0  0  0  0  0  0  0  0  0  0
   -1.0864   -3.0088    0.0000 O   0  0  0  0  0  0  0  0  0  0  0  0
    0.4580   -3.0663    0.0000 O   0  0  0  0  0  0  0  0  0  0  0  0
    0.5578   -0.3912    0.0000 C   0  0  0  0  0  0  0  0  0  0  0  0
   -0.1720    0.1223    0.0000 O   0  0  0  0  0  0  0  0  0  0  0  0
    1.3674   -0.0160    0.0000 O   0  0  0  0  0  0  0  0  0  0  0  0
    2.0971   -0.5296    0.0000 C   0  0  0  0  0  0  0  0  0  0  0  0
    2.9067   -0.1544    0.0000 C   0  0  3  0  0  0  0  0  0  0  0  0
    3.0790    0.7212    0.0000 C   0  0  0  0  0  0  0  0  0  0  0  0
    2.5437    1.4351    0.0000 C   0  0  0  0  0  0  0  0  0  0  0  0
    2.8943    2.2556    0.0000 C   0  0  0  0  0  0  0  0  0  0  0  0
    3.7802    2.3623    0.0000 C   0  0  0  0  0  0  0  0  0  0  0  0
    4.3156    1.6484    0.0000 C   0  0  0  0  0  0  0  0  0  0  0  0
    3.9650    0.8278    0.0000 C   0  0  0  0  0  0  0  0  0  0  0  0
    4.3402    0.0182    0.0000 C   0  0  0  0  0  0  0  0  0  0  0  0
    5.1929   -0.2447    0.0000 C   0  0  0  0  0  0  0  0  0  0  0  0
    5.3916   -1.1146    0.0000 C   0  0  0  0  0  0  0  0  0  0  0  0
    4.7375   -1.7216    0.0000 C   0  0  0  0  0  0  0  0  0  0  0  0
    3.8848   -1.4587    0.0000 C   0  0  0  0  0  0  0  0  0  0  0  0
    3.6861   -0.5888    0.0000 C   0  0  0  0  0  0  0  0  0  0  0  0
   -4.1089   -1.1102    0.0000 C   0  0  3  0  0  0  0  0  0  0  0  0
   -4.5835   -1.8658    0.0000 C   0  0  0  0  0  0  0  0  0  0  0  0
   -4.8645   -0.6355    0.0000 C   0  0  0  0  0  0  0  0  0  0  0  0
   -3.6343   -0.3546    0.0000 C   0  0  0  0  0  0  0  0  0  0  0  0
  3  2  1  6  0  0  0
  1  3  1  0  0  0  0
  3  4  1  0  0  0  0
  4  5  1  0  0  0  0
  5  6  1  0  0  0  0
  6  7  1  0  0  0  0
  6  8  2  0  0  0  0
  1  9  2  0  0  0  0
  1 10  1  0  0  0  0
 11 12  2  0  0  0  0
 11 13  1  0  0  0  0
 13 14  1  0  0  0  0
 14 15  1  0  0  0  0
 15 16  1  0  0  0  0
 16 17  2  0  0  0  0
 17 18  1  0  0  0  0
 18 19  2  0  0  0  0
 19 20  1  0  0  0  0
 20 21  2  0  0  0  0
 21 22  1  0  0  0  0
 22 23  2  0  0  0  0
 23 24  1  0  0  0  0
 24 25  2  0  0  0  0
 25 26  1  0  0  0  0
 26 27  2  0  0  0  0
 15 27  1  0  0  0  0
 22 27  1  0  0  0  0
 16 21  1  0  0  0  0
  2 11  1  0  0  0  0
 28 29  1  0  0  0  0
 28 31  1  0  0  0  0
 28 30  1  0  0  0  0
  7 28  1  0  0  0  0
M  END
> <#>
485

> <PLATE>
LAT007

> <ROW>
E

> <COL>
2

> <COORD>
E02

> <LATID>
LAT007E02

> <Supplier>
Peptides International

> <Suplier_CAT#>
FLE-1720-PI

> <Name>
Fmoc-Glutamic Acid (O-Tert Butyl Ester)

> <Concentration_(mM)>
2.5

> <IC50_(µM)>
67

> <Yeast_Active?>
-

> <Pubchem_CID>
2724637

$$$$
