
  -ISIS-  08130814242D

 34 37  0  0  0  0  0  0  0  0999 V2000
   10.8292    2.2583    0.0000 N   0  0  3  0  0  0  0  0  0  0  0  0
   11.8667    1.7833    0.0000 C   0  0  0  0  0  0  0  0  0  0  0  0
   10.0750    1.4208    0.0000 C   0  0  0  0  0  0  0  0  0  0  0  0
   11.7292    0.6625    0.0000 N   0  0  0  0  0  0  0  0  0  0  0  0
   10.6167    0.4000    0.0000 N   0  0  0  0  0  0  0  0  0  0  0  0
    5.7917   -2.4917    0.0000 C   0  0  0  0  0  0  0  0  0  0  0  0
    7.7875   -2.4792    0.0000 C   0  0  0  0  0  0  0  0  0  0  0  0
    4.7792   -1.9250    0.0000 C   0  0  0  0  0  0  0  0  0  0  0  0
    8.8792    1.5875    0.0000 S   0  0  0  0  0  0  0  0  0  0  0  0
    6.7792   -1.9125    0.0000 C   0  0  0  0  0  0  0  0  0  0  0  0
    7.8292   -0.1167    0.0000 C   0  0  0  0  0  0  0  0  0  0  0  0
   12.7792    2.4708    0.0000 C   0  0  0  0  0  0  0  0  0  0  0  0
    7.8000   -3.6417    0.0000 C   0  0  0  0  0  0  0  0  0  0  0  0
    8.8167   -0.7292    0.0000 N   0  0  0  0  0  0  0  0  0  0  0  0
    8.7875   -1.8917    0.0000 C   0  0  0  0  0  0  0  0  0  0  0  0
    5.7917   -3.6542    0.0000 C   0  0  0  0  0  0  0  0  0  0  0  0
    4.7792   -0.7625    0.0000 O   0  0  0  0  0  0  0  0  0  0  0  0
    3.7792   -2.5042    0.0000 C   0  0  0  0  0  0  0  0  0  0  0  0
    6.8167   -0.6667    0.0000 O   0  0  0  0  0  0  0  0  0  0  0  0
    6.7917   -4.2292    0.0000 C   0  0  0  0  0  0  0  0  0  0  0  0
    7.8625    1.0375    0.0000 C   0  0  0  0  0  0  0  0  0  0  0  0
   10.5542    3.3958    0.0000 C   0  0  0  0  0  0  0  0  0  0  0  0
   13.8375    2.0083    0.0000 C   0  0  0  0  0  0  0  0  0  0  0  0
    8.8042   -4.2250    0.0000 O   0  0  0  0  0  0  0  0  0  0  0  0
    2.7792   -1.9292    0.0000 C   0  0  0  0  0  0  0  0  0  0  0  0
    3.7792   -3.6750    0.0000 C   0  0  0  0  0  0  0  0  0  0  0  0
   14.8042    2.6708    0.0000 C   0  0  0  0  0  0  0  0  0  0  0  0
   13.9917    0.8708    0.0000 C   0  0  0  0  0  0  0  0  0  0  0  0
    1.7750   -2.5042    0.0000 C   0  0  0  0  0  0  0  0  0  0  0  0
    2.7792   -4.2542    0.0000 C   0  0  0  0  0  0  0  0  0  0  0  0
   15.0792    0.4000    0.0000 C   0  0  0  0  0  0  0  0  0  0  0  0
   15.8667    2.2375    0.0000 C   0  0  0  0  0  0  0  0  0  0  0  0
    1.7750   -3.6750    0.0000 C   0  0  0  0  0  0  0  0  0  0  0  0
   16.0000    1.0958    0.0000 C   0  0  0  0  0  0  0  0  0  0  0  0
  2  1  1  0  0  0  0
  3  1  1  0  0  0  0
  4  2  2  0  0  0  0
  5  3  2  0  0  0  0
  6 10  1  0  0  0  0
  7 15  1  0  0  0  0
  8  6  1  0  0  0  0
  9  3  1  0  0  0  0
 10  7  2  0  0  0  0
 11 21  1  0  0  0  0
 12  2  1  0  0  0  0
 13  7  1  0  0  0  0
 14 11  1  0  0  0  0
 15 14  1  0  0  0  0
 16 20  1  0  0  0  0
 17  8  2  0  0  0  0
 18  8  1  0  0  0  0
 19 11  2  0  0  0  0
 20 13  2  0  0  0  0
 21  9  1  0  0  0  0
 22  1  1  0  0  0  0
 23 12  1  0  0  0  0
 24 13  1  0  0  0  0
 25 18  2  0  0  0  0
 26 18  1  0  0  0  0
 27 23  2  0  0  0  0
 28 23  1  0  0  0  0
 29 25  1  0  0  0  0
 30 26  2  0  0  0  0
 31 28  2  0  0  0  0
 32 27  1  0  0  0  0
 33 30  1  0  0  0  0
 34 31  1  0  0  0  0
  4  5  1  0  0  0  0
 34 32  2  0  0  0  0
  6 16  2  0  0  0  0
 29 33  2  0  0  0  0
M  END
> <#>
1315

> <PLATE>
LAT017

> <ROW>
C

> <COL>
6

> <COORD>
C06

> <LATID>
LAT017C06

> <Supplier>
Chembridge

> <Suplier_CAT#>
7013416

> <Name>
Novel

> <Concentration_(mM)>
2.5

> <IC50_(µM)>
>100

> <Yeast_Active?>
-

> <Pubchem_CID>
1328813

$$$$
