
  -ISIS-  08130814242D

 18 19  0  0  0  0  0  0  0  0999 V2000
   -1.3708    0.3458    0.0000 C   0  0  0  0  0  0  0  0  0  0  0  0
   -0.7333   -0.0042    0.0000 C   0  0  0  0  0  0  0  0  0  0  0  0
   -1.3708    1.0625    0.0000 C   0  0  0  0  0  0  0  0  0  0  0  0
   -0.1125    0.3208    0.0000 C   0  0  0  0  0  0  0  0  0  0  0  0
   -1.9958    1.4208    0.0000 C   0  0  0  0  0  0  0  0  0  0  0  0
   -1.9958    0.0000    0.0000 C   0  0  0  0  0  0  0  0  0  0  0  0
   -0.1125    1.0458    0.0000 C   0  0  0  0  0  0  0  0  0  0  0  0
   -0.7333   -0.7500    0.0000 O   0  0  0  0  0  0  0  0  0  0  0  0
    0.5000    1.4000    0.0000 C   0  0  0  0  0  0  0  0  0  0  0  0
   -2.6125    1.0625    0.0000 C   0  0  0  0  0  0  0  0  0  0  0  0
   -0.9000    1.3125    0.0000 O   0  0  0  0  0  0  0  0  0  0  0  0
   -2.6125    0.3458    0.0000 C   0  0  0  0  0  0  0  0  0  0  0  0
   -3.2500    1.4208    0.0000 O   0  0  0  0  0  0  0  0  0  0  0  0
   -0.6125    1.3208    0.0000 C   0  0  0  0  0  0  0  0  0  0  0  0
    1.1500    1.0458    0.0000 C   0  0  0  0  0  0  0  0  0  0  0  0
    0.5000    2.1208    0.0000 C   0  0  0  0  0  0  0  0  0  0  0  0
   -0.6500    2.0458    0.0000 C   0  0  0  0  0  0  0  0  0  0  0  0
   -0.1125    2.4833    0.0000 C   0  0  0  0  0  0  0  0  0  0  0  0
  2  1  1  0  0  0  0
  3  1  2  0  0  0  0
  4  2  1  0  0  0  0
  5  3  1  0  0  0  0
  6  1  1  0  0  0  0
  7  4  1  0  0  0  0
  8  2  2  0  0  0  0
  9  7  2  0  0  0  0
 10 12  1  0  0  0  0
 11  3  1  0  0  0  0
 12  6  2  0  0  0  0
 13 10  1  0  0  0  0
 14  7  1  0  0  0  0
 15  9  1  0  0  0  0
 16  9  1  0  0  0  0
 17 14  2  0  0  0  0
 18 17  1  0  0  0  0
 10  5  2  0  0  0  0
 16 18  2  0  0  0  0
M  END
> <#>
1308

> <PLATE>
LAT017

> <ROW>
D

> <COL>
5

> <COORD>
D05

> <LATID>
LAT017D05

> <Supplier>
Chembridge

> <Suplier_CAT#>
6685056

> <Name>
Novel

> <Concentration_(mM)>
2.5

> <IC50_(µM)>
>100

> <Yeast_Active?>
-

> <Pubchem_CID>
805676

$$$$
