
  -ISIS-  08130814242D

 27 28  0  0  0  0  0  0  0  0999 V2000
    5.7250   -3.4042    0.0000 C   0  0  0  0  0  0  0  0  0  0  0  0
    4.9000   -3.4917    0.0000 N   0  0  3  0  0  0  0  0  0  0  0  0
    6.0625   -4.1625    0.0000 N   0  0  0  0  0  0  0  0  0  0  0  0
    4.7292   -4.3042    0.0000 C   0  0  0  0  0  0  0  0  0  0  0  0
    5.4500   -4.7167    0.0000 C   0  0  0  0  0  0  0  0  0  0  0  0
    6.1375   -2.6875    0.0000 N   0  0  0  0  0  0  0  0  0  0  0  0
    4.3417   -2.8750    0.0000 C   0  0  0  0  0  0  0  0  0  0  0  0
    2.9792   -2.4292    0.0000 N   0  0  3  0  0  0  0  0  0  0  0  0
    8.2125   -1.9667    0.0000 N   0  0  0  0  0  0  0  0  0  0  0  0
    3.5292   -3.0417    0.0000 C   0  0  0  0  0  0  0  0  0  0  0  0
    1.8667   -1.2042    0.0000 O   0  0  0  0  0  0  0  0  0  0  0  0
    6.9667   -2.6875    0.0000 C   0  0  0  0  0  0  0  0  0  0  0  0
    7.3792   -1.9667    0.0000 C   0  0  0  0  0  0  0  0  0  0  0  0
    4.0042   -4.7167    0.0000 C   0  0  0  0  0  0  0  0  0  0  0  0
    5.4500   -5.5500    0.0000 C   0  0  0  0  0  0  0  0  0  0  0  0
    2.1667   -2.6042    0.0000 C   0  0  0  0  0  0  0  0  0  0  0  0
    3.2375   -1.6417    0.0000 C   0  0  0  0  0  0  0  0  0  0  0  0
    8.6292   -1.2542    0.0000 C   0  0  0  0  0  0  0  0  0  0  0  0
    2.6792   -1.0292    0.0000 C   0  0  0  0  0  0  0  0  0  0  0  0
    1.6125   -1.9875    0.0000 C   0  0  0  0  0  0  0  0  0  0  0  0
    6.9667   -1.2542    0.0000 C   0  0  0  0  0  0  0  0  0  0  0  0
    4.0042   -5.5500    0.0000 C   0  0  0  0  0  0  0  0  0  0  0  0
    4.7292   -5.9667    0.0000 C   0  0  0  0  0  0  0  0  0  0  0  0
    8.2125   -0.5292    0.0000 C   0  0  0  0  0  0  0  0  0  0  0  0
    7.3792   -0.5292    0.0000 C   0  0  0  0  0  0  0  0  0  0  0  0
    7.3667   -4.3667    0.0000 Cl  0  0  0  0  0  0  0  0  0  0  0  0
    8.8042   -4.3375    0.0000 Cl  0  0  0  0  0  0  0  0  0  0  0  0
  2  1  1  0  0  0  0
  3  1  2  0  0  0  0
  4  2  1  0  0  0  0
  5  3  1  0  0  0  0
  6  1  1  0  0  0  0
  7  2  1  0  0  0  0
  8 10  1  0  0  0  0
  9 13  1  0  0  0  0
 10  7  1  0  0  0  0
 11 19  1  0  0  0  0
 12  6  1  0  0  0  0
 13 12  1  0  0  0  0
 14  4  1  0  0  0  0
 15  5  1  0  0  0  0
 16  8  1  0  0  0  0
 17  8  1  0  0  0  0
 18  9  2  0  0  0  0
 19 17  1  0  0  0  0
 20 16  1  0  0  0  0
 21 13  2  0  0  0  0
 22 14  2  0  0  0  0
 23 15  2  0  0  0  0
 24 25  2  0  0  0  0
 25 21  1  0  0  0  0
  4  5  2  0  0  0  0
 23 22  1  0  0  0  0
 18 24  1  0  0  0  0
 20 11  1  0  0  0  0
M  END
> <#>
1489

> <PLATE>
LAT019

> <ROW>
A

> <COL>
8

> <COORD>
A08

> <LATID>
LAT019A08

> <Supplier>
Chembridge

> <Suplier_CAT#>
7963571

> <Name>
Novel

> <Concentration_(mM)>
2.5

> <IC50_(µM)>
inactive

> <Yeast_Active?>
-

> <Pubchem_CID>
666330

$$$$
