
  -ISIS-  08130814242D

 18 19  0  0  0  0  0  0  0  0999 V2000
    1.2000    3.7708    0.0000 C   0  0  0  0  0  0  0  0  0  0  0  0
    1.2000    3.0208    0.0000 C   0  0  0  0  0  0  0  0  0  0  0  0
    0.5375    4.1500    0.0000 C   0  0  0  0  0  0  0  0  0  0  0  0
    1.9375    4.0042    0.0000 O   0  0  0  0  0  0  0  0  0  0  0  0
    1.9375    2.7708    0.0000 O   0  0  0  0  0  0  0  0  0  0  0  0
    0.5375    2.6333    0.0000 C   0  0  0  0  0  0  0  0  0  0  0  0
   -0.1208    3.7708    0.0000 C   0  0  0  0  0  0  0  0  0  0  0  0
    2.3542    3.3958    0.0000 C   0  0  0  0  0  0  0  0  0  0  0  0
   -0.1208    3.0208    0.0000 C   0  0  0  0  0  0  0  0  0  0  0  0
   -0.8208    1.8958    0.0000 N   0  0  0  0  0  0  0  0  0  0  0  0
   -0.8000    2.6500    0.0000 C   0  0  0  0  0  0  0  0  0  0  0  0
    0.5375    4.9292    0.0000 O   0  0  0  0  0  0  0  0  0  0  0  0
   -1.5000    1.5125    0.0000 C   0  0  3  0  0  0  0  0  0  0  0  0
   -2.1458    2.6708    0.0000 O   0  0  0  0  0  0  0  0  0  0  0  0
   -2.1458    1.9125    0.0000 C   0  0  0  0  0  0  0  0  0  0  0  0
   -0.1208    5.3042    0.0000 C   0  0  0  0  0  0  0  0  0  0  0  0
   -2.8000    3.0500    0.0000 C   0  0  0  0  0  0  0  0  0  0  0  0
   -1.5208    0.7500    0.0000 C   0  0  0  0  0  0  0  0  0  0  0  0
  2  1  1  0  0  0  0
  3  1  2  0  0  0  0
  4  1  1  0  0  0  0
  5  2  1  0  0  0  0
  6  2  2  0  0  0  0
  7  3  1  0  0  0  0
  8  4  1  0  0  0  0
  9  7  2  0  0  0  0
 10 11  1  0  0  0  0
 11  9  1  0  0  0  0
 12  3  1  0  0  0  0
 13 10  1  0  0  0  0
 14 15  1  0  0  0  0
 15 13  1  0  0  0  0
 16 12  1  0  0  0  0
 17 14  1  0  0  0  0
 18 13  1  0  0  0  0
  5  8  1  0  0  0  0
  9  6  1  0  0  0  0
M  END
> <#>
1995

> <PLATE>
LAT025

> <ROW>
C

> <COL>
11

> <COORD>
C11

> <LATID>
LAT025C11

> <Supplier>
Chembridge

> <Suplier_CAT#>
5535672

> <Sec_Name>
155_E03

> <Concentration_(mM)>
2.5

> <IC50_(µM)>
inactive

> <Yeast_Active?>
-

> <Pubchem_CID>
2850716

$$$$
