
  -ISIS-  08130814242D

 16 17  0  0  0  0  0  0  0  0999 V2000
    2.3375   -1.6542    0.0000 C   0  0  0  0  0  0  0  0  0  0  0  0
    3.3042   -2.2167    0.0000 C   0  0  0  0  0  0  0  0  0  0  0  0
    0.4042   -1.6542    0.0000 N   0  0  0  0  0  0  0  0  0  0  0  0
    4.3167   -1.7542    0.0000 O   0  0  0  0  0  0  0  0  0  0  0  0
    1.3667   -2.2167    0.0000 N   0  0  0  0  0  0  0  0  0  0  0  0
    2.3375   -0.5500    0.0000 O   0  0  0  0  0  0  0  0  0  0  0  0
    3.3875   -3.3042    0.0000 C   0  0  0  0  0  0  0  0  0  0  0  0
    5.0792   -2.6042    0.0000 C   0  0  0  0  0  0  0  0  0  0  0  0
   -1.5625    1.7458    0.0000 N   0  0  0  0  0  0  0  0  0  0  0  0
    4.5042   -3.5667    0.0000 C   0  0  0  0  0  0  0  0  0  0  0  0
    0.4042   -0.5500    0.0000 C   0  0  0  0  0  0  0  0  0  0  0  0
   -0.5708    0.0208    0.0000 C   0  0  0  0  0  0  0  0  0  0  0  0
   -0.5708    1.1708    0.0000 C   0  0  0  0  0  0  0  0  0  0  0  0
   -2.5458    1.1708    0.0000 C   0  0  0  0  0  0  0  0  0  0  0  0
   -1.5625   -0.5500    0.0000 C   0  0  0  0  0  0  0  0  0  0  0  0
   -2.5458    0.0208    0.0000 C   0  0  0  0  0  0  0  0  0  0  0  0
  2  1  1  0  0  0  0
  3  5  1  0  0  0  0
  4  2  1  0  0  0  0
  5  1  1  0  0  0  0
  6  1  2  0  0  0  0
  7  2  2  0  0  0  0
  8  4  1  0  0  0  0
  9 13  1  0  0  0  0
 10  7  1  0  0  0  0
 11  3  2  0  0  0  0
 12 11  1  0  0  0  0
 13 12  2  0  0  0  0
 14 16  1  0  0  0  0
 15 12  1  0  0  0  0
 16 15  2  0  0  0  0
 10  8  2  0  0  0  0
  9 14  2  0  0  0  0
M  END
> <#>
1649

> <PLATE>
LAT021

> <ROW>
A

> <COL>
8

> <COORD>
A08

> <LATID>
LAT021A08

> <Supplier>
Chembridge

> <Suplier_CAT#>
5111067

> <Name>
Novel

> <Concentration_(mM)>
2.5

> <IC50_(µM)>
inactive

> <Yeast_Active?>
-

> <Pubchem_CID>
796665

$$$$
