
  -ISIS-  08130814242D

 23 26  0  0  0  0  0  0  0  0999 V2000
    7.4292   -6.7917    0.0000 C   0  0  1  0  0  0  0  0  0  0  0  0
    7.4292   -7.5417    0.0000 C   0  0  3  0  0  0  0  0  0  0  0  0
    5.4792   -8.6667    0.0000 C   0  0  0  0  0  0  0  0  0  0  0  0
    6.7792   -7.9167    0.0000 C   0  0  3  0  0  0  0  0  0  0  0  0
    6.1292   -7.5417    0.0000 C   0  0  3  0  0  0  0  0  0  0  0  0
    5.4792   -7.9167    0.0000 C   0  0  1  0  0  0  0  0  0  0  0  0
    8.1417   -6.5667    0.0000 C   0  0  2  0  0  0  0  0  0  0  0  0
    4.8292   -9.0417    0.0000 C   0  0  0  0  0  0  0  0  0  0  0  0
    8.3042   -5.8375    0.0000 C   0  0  0  0  0  0  0  0  0  0  0  0
    6.7667   -6.4167    0.0000 C   0  0  0  0  0  0  0  0  0  0  0  0
    6.1292   -6.7917    0.0000 C   0  0  0  0  0  0  0  0  0  0  0  0
    6.7792   -8.6667    0.0000 C   0  0  0  0  0  0  0  0  0  0  0  0
    8.1417   -7.7750    0.0000 C   0  0  0  0  0  0  0  0  0  0  0  0
    8.4667   -5.1042    0.0000 C   0  0  0  0  0  0  0  0  0  0  0  0
    4.8292   -7.5417    0.0000 C   0  0  0  0  0  0  0  0  0  0  0  0
    6.1292   -9.0417    0.0000 C   0  0  0  0  0  0  0  0  0  0  0  0
    4.1792   -8.6667    0.0000 C   0  0  0  0  0  0  0  0  0  0  0  0
    8.5792   -7.1625    0.0000 C   0  0  0  0  0  0  0  0  0  0  0  0
    3.5292   -9.0500    0.0000 O   0  0  0  0  0  0  0  0  0  0  0  0
    4.1792   -7.9167    0.0000 C   0  0  0  0  0  0  0  0  0  0  0  0
    9.1042   -6.5542    0.0000 O   0  0  0  0  0  0  0  0  0  0  0  0
    7.4167   -6.0542    0.0000 C   0  0  0  0  0  0  0  0  0  0  0  0
    5.4792   -7.1667    0.0000 H   0  0  0  0  0  0  0  0  0  0  0  0
  2  1  1  0  0  0  0
  3  6  1  0  0  0  0
  4  2  1  0  0  0  0
  5 11  1  0  0  0  0
  6  5  1  0  0  0  0
  7  1  1  0  0  0  0
  8  3  2  0  0  0  0
  7  9  1  6  0  0  0
 10  1  1  0  0  0  0
 11 10  1  0  0  0  0
 12  4  1  0  0  0  0
 13  2  1  0  0  0  0
 14  9  3  0  0  0  0
 15  6  1  0  0  0  0
 16 12  1  0  0  0  0
 17 20  1  0  0  0  0
 18  7  1  0  0  0  0
 19 17  2  0  0  0  0
 20 15  1  0  0  0  0
  7 21  1  1  0  0  0
  1 22  1  1  0  0  0
  6 23  1  1  0  0  0
 13 18  1  0  0  0  0
  4  5  1  0  0  0  0
  3 16  1  0  0  0  0
  8 17  1  0  0  0  0
M  END
> <#>
106

> <PLATE>
LAT002

> <ROW>
B

> <COL>
5

> <COORD>
B05

> <LATID>
LAT002B05

> <Supplier>
Microsource

> <Suplier_CAT#>
01500437

> <Name>
Norethindrone

> <Concentration_(mM)>
2.5

> <IC50_(µM)>
31

> <Yeast_Active?>
-

> <Pubchem_CID>
4536

> <Description>
Progestogen

$$$$
