
  -ISIS-  08130814242D

 22 24  0  0  0  0  0  0  0  0999 V2000
    4.3042    3.1958    0.0000 C   0  0  0  0  0  0  0  0  0  0  0  0
    5.8042    1.8958    0.0000 N   0  0  3  0  0  0  0  0  0  0  0  0
    3.5542    3.1958    0.0000 C   0  0  0  0  0  0  0  0  0  0  0  0
    4.6792    2.5458    0.0000 C   0  0  0  0  0  0  0  0  0  0  0  0
    6.0542    0.7125    0.0000 N   0  0  0  0  0  0  0  0  0  0  0  0
    6.7042    1.0875    0.0000 N   0  0  0  0  0  0  0  0  0  0  0  0
    5.4292    2.5458    0.0000 C   0  0  0  0  0  0  0  0  0  0  0  0
    5.5000    1.2125    0.0000 C   0  0  0  0  0  0  0  0  0  0  0  0
    6.5500    1.8208    0.0000 C   0  0  0  0  0  0  0  0  0  0  0  0
    3.1792    2.5458    0.0000 N   0  0  0  0  0  0  0  0  0  0  0  0
    4.6792    3.8458    0.0000 C   0  0  0  0  0  0  0  0  0  0  0  0
    1.3042    1.8958    0.0000 N   0  0  0  0  0  0  0  0  0  0  0  0
    3.1792    3.8458    0.0000 O   0  0  0  0  0  0  0  0  0  0  0  0
    5.8042    3.1958    0.0000 C   0  0  0  0  0  0  0  0  0  0  0  0
    5.4292    3.8458    0.0000 C   0  0  0  0  0  0  0  0  0  0  0  0
    2.4292    2.5458    0.0000 C   0  0  0  0  0  0  0  0  0  0  0  0
    2.0542    1.8958    0.0000 C   0  0  0  0  0  0  0  0  0  0  0  0
    4.3042    4.4917    0.0000 Cl  0  0  0  0  0  0  0  0  0  0  0  0
    0.9292    1.2500    0.0000 C   0  0  0  0  0  0  0  0  0  0  0  0
    2.4292    1.2500    0.0000 C   0  0  0  0  0  0  0  0  0  0  0  0
    1.3042    0.6000    0.0000 C   0  0  0  0  0  0  0  0  0  0  0  0
    2.0542    0.6000    0.0000 C   0  0  0  0  0  0  0  0  0  0  0  0
  2  7  1  0  0  0  0
  3  1  1  0  0  0  0
  4  1  2  0  0  0  0
  5  8  2  0  0  0  0
  6  9  2  0  0  0  0
  7  4  1  0  0  0  0
  8  2  1  0  0  0  0
  9  2  1  0  0  0  0
 10  3  1  0  0  0  0
 11  1  1  0  0  0  0
 12 17  1  0  0  0  0
 13  3  2  0  0  0  0
 14 15  1  0  0  0  0
 15 11  2  0  0  0  0
 16 10  1  0  0  0  0
 17 16  1  0  0  0  0
 18 11  1  0  0  0  0
 19 12  2  0  0  0  0
 20 17  2  0  0  0  0
 21 22  2  0  0  0  0
 22 20  1  0  0  0  0
 14  7  2  0  0  0  0
  6  5  1  0  0  0  0
 21 19  1  0  0  0  0
M  END
> <#>
1530

> <PLATE>
LAT020

> <ROW>
B

> <COL>
3

> <COORD>
B03

> <LATID>
LAT020B03

> <Supplier>
Chembridge

> <Suplier_CAT#>
7941151

> <Name>
Novel

> <Concentration_(mM)>
2.5

> <IC50_(µM)>
inactive

> <Yeast_Active?>
-

> <Pubchem_CID>
834466

$$$$
