
  -ISIS-  08130814242D

  8  8  0  0  0  0  0  0  0  0999 V2000
    3.8749   -2.2620    0.0000 S   0  0  0  0  0  0  0  0  0  0  0  0
    3.1401   -1.2508    0.0000 C   0  0  0  0  0  0  0  0  0  0  0  0
    3.8749   -0.2395    0.0000 N   0  0  0  0  0  0  0  0  0  0  0  0
    5.0637   -0.6258    0.0000 N   0  0  0  0  0  0  0  0  0  0  0  0
    5.0637   -1.8758    0.0000 C   0  0  0  0  0  0  0  0  0  0  0  0
    6.0750   -2.6105    0.0000 S   0  0  0  0  0  0  0  0  0  0  0  0
    7.2169   -2.1021    0.0000 C   0  0  0  0  0  0  0  0  0  0  0  0
    1.8901   -1.2508    0.0000 N   0  0  0  0  0  0  0  0  0  0  0  0
  1  2  1  0  0  0  0
  2  3  2  0  0  0  0
  3  4  1  0  0  0  0
  4  5  2  0  0  0  0
  1  5  1  0  0  0  0
  6  7  1  0  0  0  0
  5  6  1  0  0  0  0
  2  8  1  0  0  0  0
M  END
> <#>
313

> <PLATE>
LAT004

> <ROW>
A

> <COL>
11

> <COORD>
A11

> <LATID>
LAT004A11

> <Supplier>
Aldrich

> <Suplier_CAT#>
49,421-6

> <Name>
2-Amino-5(Methylthio)-1,3,4-Thiadiazole

> <Concentration_(mM)>
2.5

> <IC50_(µM)>
inactive

> <Yeast_Active?>
-

> <Pubchem_CID>
21390

$$$$
