
  -ISIS-  08130814242D

 21 22  0  0  0  0  0  0  0  0999 V2000
   -2.6490   -1.0676    0.0000 C   0  0  0  0  0  0  0  0  0  0  0  0
   -2.6490   -0.1759    0.0000 S   0  0  3  0  0  0  0  0  0  0  0  0
   -3.5407   -0.1759    0.0000 O   0  0  0  0  0  0  0  0  0  0  0  0
   -1.7574   -0.1759    0.0000 O   0  0  0  0  0  0  0  0  0  0  0  0
   -2.6490    0.7157    0.0000 N   0  0  0  0  0  0  0  0  0  0  0  0
   -1.8768    1.1616    0.0000 C   0  0  0  0  0  0  0  0  0  0  0  0
   -1.8739    2.0532    0.0000 C   0  0  0  0  0  0  0  0  0  0  0  0
   -1.1008    2.4972    0.0000 C   0  0  0  0  0  0  0  0  0  0  0  0
   -0.3284    2.0489    0.0000 C   0  0  0  0  0  0  0  0  0  0  0  0
   -0.3305    1.1573    0.0000 C   0  0  0  0  0  0  0  0  0  0  0  0
   -1.1040    0.7126    0.0000 C   0  0  0  0  0  0  0  0  0  0  0  0
    0.4438    2.4947    0.0000 N   0  3  0  0  0  0  0  0  0  0  0  0
    0.4438    3.3857    0.0000 O   0  0  0  0  0  0  0  0  0  0  0  0
    1.2166    2.0485    0.0000 O   0  5  0  0  0  0  0  0  0  0  0  0
   -2.6461    2.4990    0.0000 O   0  0  0  0  0  0  0  0  0  0  0  0
   -3.4177    2.0535    0.0000 C   0  0  0  0  0  0  0  0  0  0  0  0
   -3.4196    1.1616    0.0000 C   0  0  0  0  0  0  0  0  0  0  0  0
   -4.1932    0.7168    0.0000 C   0  0  0  0  0  0  0  0  0  0  0  0
   -4.9651    1.1644    0.0000 C   0  0  0  0  0  0  0  0  0  0  0  0
   -4.9635    2.0567    0.0000 C   0  0  0  0  0  0  0  0  0  0  0  0
   -4.1907    2.5000    0.0000 C   0  0  0  0  0  0  0  0  0  0  0  0
  1  2  1  0  0  0  0
  2  3  2  0  0  0  0
  2  4  2  0  0  0  0
  2  5  1  0  0  0  0
  5  6  1  0  0  0  0
  6  7  2  0  0  0  0
  7  8  1  0  0  0  0
  8  9  2  0  0  0  0
  9 10  1  0  0  0  0
 10 11  2  0  0  0  0
  6 11  1  0  0  0  0
  9 12  1  0  0  0  0
 12 13  2  0  0  0  0
 12 14  1  0  0  0  0
  7 15  1  0  0  0  0
 15 16  1  0  0  0  0
 16 17  2  0  0  0  0
 17 18  1  0  0  0  0
 18 19  2  0  0  0  0
 19 20  1  0  0  0  0
 20 21  2  0  0  0  0
 16 21  1  0  0  0  0
M  CHG  2  12   1  14  -1
M  END
> <#>
464

> <PLATE>
LAT006

> <ROW>
H

> <COL>
9

> <COORD>
H09

> <LATID>
LAT006H09

> <Supplier>
Sigma

> <Suplier_CAT#>
N1016

> <Name>
Nimesulide

> <Concentration_(mM)>
2.5

> <IC50_(µM)>
45

> <Yeast_Active?>
-

> <Pubchem_CID>
4495

$$$$
