
  -ISIS-  08130814242D

 19 21  0  0  0  0  0  0  0  0999 V2000
    2.1042   -0.8542    0.0000 O   0  0  0  0  0  0  0  0  0  0  0  0
    1.7375    0.2833    0.0000 N   0  0  0  0  0  0  0  0  0  0  0  0
    2.4875    0.2833    0.0000 N   0  0  0  0  0  0  0  0  0  0  0  0
    1.5000   -0.4167    0.0000 C   0  0  0  0  0  0  0  0  0  0  0  0
    2.7167   -0.4167    0.0000 C   0  0  0  0  0  0  0  0  0  0  0  0
    0.7875   -0.6500    0.0000 C   0  0  0  0  0  0  0  0  0  0  0  0
    3.4292   -0.6500    0.0000 C   0  0  0  0  0  0  0  0  0  0  0  0
    0.6375   -1.3875    0.0000 C   0  0  0  0  0  0  0  0  0  0  0  0
    3.5875   -1.3875    0.0000 C   0  0  0  0  0  0  0  0  0  0  0  0
    3.9875   -0.1500    0.0000 C   0  0  0  0  0  0  0  0  0  0  0  0
    4.8542   -1.1167    0.0000 C   0  0  0  0  0  0  0  0  0  0  0  0
   -0.0708   -1.6167    0.0000 C   0  0  0  0  0  0  0  0  0  0  0  0
    4.3000   -1.6167    0.0000 C   0  0  0  0  0  0  0  0  0  0  0  0
    4.7000   -0.3792    0.0000 C   0  0  0  0  0  0  0  0  0  0  0  0
    5.5667   -1.3500    0.0000 Br  0  0  0  0  0  0  0  0  0  0  0  0
    0.2292   -0.1500    0.0000 C   0  0  0  0  0  0  0  0  0  0  0  0
   -0.4708   -0.3792    0.0000 C   0  0  0  0  0  0  0  0  0  0  0  0
   -0.6333   -1.1167    0.0000 C   0  0  0  0  0  0  0  0  0  0  0  0
   -0.2208   -2.3500    0.0000 C   0  0  0  0  0  0  0  0  0  0  0  0
  2  4  2  0  0  0  0
  3  5  2  0  0  0  0
  4  1  1  0  0  0  0
  5  1  1  0  0  0  0
  6  4  1  0  0  0  0
  7  5  1  0  0  0  0
  8  6  2  0  0  0  0
  9  7  1  0  0  0  0
 10  7  2  0  0  0  0
 11 14  2  0  0  0  0
 12  8  1  0  0  0  0
 13  9  2  0  0  0  0
 14 10  1  0  0  0  0
 15 11  1  0  0  0  0
 16  6  1  0  0  0  0
 17 16  2  0  0  0  0
 18 17  1  0  0  0  0
 19 12  1  0  0  0  0
  2  3  1  0  0  0  0
 11 13  1  0  0  0  0
 12 18  2  0  0  0  0
M  END
> <#>
866

> <PLATE>
LAT011

> <ROW>
B

> <COL>
10

> <COORD>
B10

> <LATID>
LAT011B10

> <Supplier>
Chembridge

> <Suplier_CAT#>
5665669

> <Name>
Novel

> <Sec_Name>
209_D10

> <Concentration_(mM)>
2.5

> <IC50_(µM)>
inactive

> <Yeast_Active?>
-

> <Pubchem_CID>
691723

$$$$
