
  -ISIS-  08130814242D

 19 21  0  0  0  0  0  0  0  0999 V2000
   -0.5000   -0.4792    0.0000 N   0  0  3  0  0  0  0  0  0  0  0  0
   -0.9458   -1.1792    0.0000 C   0  0  0  0  0  0  0  0  0  0  0  0
   -1.7458   -0.9667    0.0000 C   0  0  0  0  0  0  0  0  0  0  0  0
   -1.0208    0.1458    0.0000 C   0  0  0  0  0  0  0  0  0  0  0  0
   -1.7958   -0.1500    0.0000 C   0  0  0  0  0  0  0  0  0  0  0  0
    0.3167   -0.4167    0.0000 C   0  0  0  0  0  0  0  0  0  0  0  0
    0.7792   -1.1042    0.0000 C   0  0  0  0  0  0  0  0  0  0  0  0
   -0.7208   -1.9667    0.0000 C   0  0  0  0  0  0  0  0  0  0  0  0
    1.6000   -1.1000    0.0000 C   0  0  0  0  0  0  0  0  0  0  0  0
   -2.3208   -1.5542    0.0000 C   0  0  0  0  0  0  0  0  0  0  0  0
    2.0000   -0.3792    0.0000 O   0  0  0  0  0  0  0  0  0  0  0  0
   -2.0958   -2.3542    0.0000 C   0  0  0  0  0  0  0  0  0  0  0  0
   -1.2958   -2.5542    0.0000 C   0  0  0  0  0  0  0  0  0  0  0  0
    2.0167   -1.8042    0.0000 O   0  0  0  0  0  0  0  0  0  0  0  0
   -2.6625   -2.9500    0.0000 I   0  0  0  0  0  0  0  0  0  0  0  0
   -0.9000    0.9625    0.0000 C   0  0  0  0  0  0  0  0  0  0  0  0
   -2.4458    0.3500    0.0000 C   0  0  0  0  0  0  0  0  0  0  0  0
   -1.5500    1.4833    0.0000 C   0  0  0  0  0  0  0  0  0  0  0  0
   -2.3208    1.1708    0.0000 C   0  0  0  0  0  0  0  0  0  0  0  0
  2  1  1  0  0  0  0
  3  2  1  0  0  0  0
  4  1  1  0  0  0  0
  5  4  2  0  0  0  0
  6  1  1  0  0  0  0
  7  6  1  0  0  0  0
  8  2  2  0  0  0  0
  9  7  1  0  0  0  0
 10  3  2  0  0  0  0
 11  9  2  0  0  0  0
 12 13  2  0  0  0  0
 13  8  1  0  0  0  0
 14  9  1  0  0  0  0
 15 12  1  0  0  0  0
 16  4  1  0  0  0  0
 17  5  1  0  0  0  0
 18 16  2  0  0  0  0
 19 18  1  0  0  0  0
  3  5  1  0  0  0  0
 17 19  2  0  0  0  0
 12 10  1  0  0  0  0
M  END
> <#>
901

> <PLATE>
LAT012

> <ROW>
E

> <COL>
4

> <COORD>
E04

> <LATID>
LAT012E04

> <Supplier>
Chembridge

> <Suplier_CAT#>
5679974

> <Name>
Novel

> <Sec_Name>
216_C08

> <Concentration_(mM)>
2.5

> <IC50_(µM)>
27

> <Yeast_Active?>
-

> <Pubchem_CID>
2258455

$$$$
