
  -ISIS-  08130814242D

 29 32  0  0  0  0  0  0  0  0999 V2000
    5.3625   -6.0792    0.0000 N   0  0  3  0  0  0  0  0  0  0  0  0
    5.3625   -6.9042    0.0000 C   0  0  0  0  0  0  0  0  0  0  0  0
    4.6417   -5.6667    0.0000 C   0  0  0  0  0  0  0  0  0  0  0  0
    3.9292   -6.0792    0.0000 C   0  0  0  0  0  0  0  0  0  0  0  0
    4.6417   -7.3167    0.0000 N   0  0  0  0  0  0  0  0  0  0  0  0
    3.9292   -6.9042    0.0000 C   0  0  0  0  0  0  0  0  0  0  0  0
    6.0875   -2.3625    0.0000 C   0  0  0  0  0  0  0  0  0  0  0  0
    6.0792   -5.6667    0.0000 C   0  0  0  0  0  0  0  0  0  0  0  0
    6.0792   -7.3250    0.0000 S   0  0  0  0  0  0  0  0  0  0  0  0
    6.8000   -1.9500    0.0000 N   0  0  0  0  0  0  0  0  0  0  0  0
    4.6417   -4.8417    0.0000 O   0  0  0  0  0  0  0  0  0  0  0  0
    6.0875   -3.1875    0.0000 C   0  0  3  0  0  0  0  0  0  0  0  0
    7.5125    0.1208    0.0000 N   0  0  0  0  0  0  0  0  0  0  0  0
    5.3667   -1.9500    0.0000 O   0  0  0  0  0  0  0  0  0  0  0  0
    6.8042   -3.6000    0.0000 C   0  0  0  0  0  0  0  0  0  0  0  0
    5.3750   -3.6000    0.0000 C   0  0  0  0  0  0  0  0  0  0  0  0
    6.8000   -1.1167    0.0000 C   0  0  0  0  0  0  0  0  0  0  0  0
    7.5125   -0.7042    0.0000 C   0  0  0  0  0  0  0  0  0  0  0  0
    6.0875   -4.8417    0.0000 C   0  0  3  0  0  0  0  0  0  0  0  0
    3.2167   -5.6667    0.0000 C   0  0  0  0  0  0  0  0  0  0  0  0
    6.8042   -4.4292    0.0000 C   0  0  0  0  0  0  0  0  0  0  0  0
    5.3750   -4.4292    0.0000 C   0  0  0  0  0  0  0  0  0  0  0  0
    3.2167   -7.3167    0.0000 C   0  0  0  0  0  0  0  0  0  0  0  0
    8.2250    0.5333    0.0000 C   0  0  0  0  0  0  0  0  0  0  0  0
    8.2292   -1.1167    0.0000 C   0  0  0  0  0  0  0  0  0  0  0  0
    2.5042   -6.0792    0.0000 C   0  0  0  0  0  0  0  0  0  0  0  0
    2.5042   -6.9042    0.0000 C   0  0  0  0  0  0  0  0  0  0  0  0
    8.9417    0.1208    0.0000 C   0  0  0  0  0  0  0  0  0  0  0  0
    8.9417   -0.7042    0.0000 C   0  0  0  0  0  0  0  0  0  0  0  0
  2  1  1  0  0  0  0
  3  1  1  0  0  0  0
  4  3  1  0  0  0  0
  5  2  1  0  0  0  0
  6  4  1  0  0  0  0
  7 12  1  0  0  0  0
  8  1  1  0  0  0  0
  9  2  2  0  0  0  0
 10  7  1  0  0  0  0
 11  3  2  0  0  0  0
 12 16  1  0  0  0  0
 13 18  2  0  0  0  0
 14  7  2  0  0  0  0
 15 21  1  0  0  0  0
 16 22  1  0  0  0  0
 17 10  1  0  0  0  0
 18 17  1  0  0  0  0
 19  8  1  0  0  0  0
 20  4  2  0  0  0  0
 21 19  1  0  0  0  0
 22 19  1  0  0  0  0
 23  6  2  0  0  0  0
 24 13  1  0  0  0  0
 25 18  1  0  0  0  0
 26 20  1  0  0  0  0
 27 26  2  0  0  0  0
 28 29  1  0  0  0  0
 29 25  2  0  0  0  0
  6  5  1  0  0  0  0
 12 15  1  0  0  0  0
 27 23  1  0  0  0  0
 24 28  2  0  0  0  0
M  END
> <#>
1528

> <PLATE>
LAT020

> <ROW>
H

> <COL>
2

> <COORD>
H02

> <LATID>
LAT020H02

> <Supplier>
Chembridge

> <Suplier_CAT#>
7752350

> <Name>
Novel

> <Concentration_(mM)>
2.5

> <IC50_(µM)>
inactive

> <Yeast_Active?>
-

> <Pubchem_CID>
1292006

$$$$
