
  -ISIS-  08130814242D

 19 20  0  0  0  0  0  0  0  0999 V2000
    2.7417    0.0833    0.0000 C   0  0  0  0  0  0  0  0  0  0  0  0
    4.1667    0.0833    0.0000 C   0  0  0  0  0  0  0  0  0  0  0  0
    3.4542   -0.3292    0.0000 C   0  0  0  0  0  0  0  0  0  0  0  0
    4.8875   -0.3292    0.0000 C   0  0  0  0  0  0  0  0  0  0  0  0
    2.7417    0.9083    0.0000 C   0  0  0  0  0  0  0  0  0  0  0  0
    2.0250   -0.3292    0.0000 C   0  0  0  0  0  0  0  0  0  0  0  0
    5.6000    0.0833    0.0000 C   0  0  0  0  0  0  0  0  0  0  0  0
    3.4542   -1.1542    0.0000 O   0  0  0  0  0  0  0  0  0  0  0  0
    6.3167   -0.3292    0.0000 C   0  0  0  0  0  0  0  0  0  0  0  0
    2.0250    1.3208    0.0000 C   0  0  0  0  0  0  0  0  0  0  0  0
    1.3125    0.0833    0.0000 C   0  0  0  0  0  0  0  0  0  0  0  0
    6.3125   -1.1542    0.0000 F   0  0  0  0  0  0  0  0  0  0  0  0
    1.3125    0.9083    0.0000 C   0  0  0  0  0  0  0  0  0  0  0  0
    0.5917   -0.3292    0.0000 Br  0  0  0  0  0  0  0  0  0  0  0  0
    3.4542    1.3250    0.0000 O   0  0  0  0  0  0  0  0  0  0  0  0
    5.5917    0.9083    0.0000 C   0  0  0  0  0  0  0  0  0  0  0  0
    7.0292    0.0833    0.0000 C   0  0  0  0  0  0  0  0  0  0  0  0
    7.0292    0.9083    0.0000 C   0  0  0  0  0  0  0  0  0  0  0  0
    6.3042    1.3208    0.0000 C   0  0  0  0  0  0  0  0  0  0  0  0
  2  3  1  0  0  0  0
  3  1  1  0  0  0  0
  4  2  2  0  0  0  0
  5  1  1  0  0  0  0
  6  1  2  0  0  0  0
  7  4  1  0  0  0  0
  8  3  2  0  0  0  0
  9  7  2  0  0  0  0
 10  5  2  0  0  0  0
 11  6  1  0  0  0  0
 12  9  1  0  0  0  0
 13 11  2  0  0  0  0
 14 11  1  0  0  0  0
 15  5  1  0  0  0  0
 16  7  1  0  0  0  0
 17  9  1  0  0  0  0
 18 19  1  0  0  0  0
 19 16  2  0  0  0  0
 13 10  1  0  0  0  0
 18 17  2  0  0  0  0
M  END
> <#>
1329

> <PLATE>
LAT017

> <ROW>
A

> <COL>
8

> <COORD>
A08

> <LATID>
LAT017A08

> <Supplier>
Chembridge

> <Suplier_CAT#>
7114541

> <Name>
Novel

> <Concentration_(mM)>
2.5

> <IC50_(µM)>
>100

> <Yeast_Active?>
+

> <Pubchem_CID>
2926920

$$$$
