
  -ISIS-  08130814242D

 24 26  0  0  0  0  0  0  0  0999 V2000
    1.9875    1.6625    0.0000 C   0  0  0  0  0  0  0  0  0  0  0  0
   -1.8708    0.5625    0.0000 C   0  0  0  0  0  0  0  0  0  0  0  0
   -2.8333    0.0000    0.0000 N   0  0  0  0  0  0  0  0  0  0  0  0
    2.9500    2.2208    0.0000 C   0  0  0  0  0  0  0  0  0  0  0  0
    1.9667    0.5458    0.0000 N   0  0  0  0  0  0  0  0  0  0  0  0
    3.9875    1.8833    0.0000 S   0  0  0  0  0  0  0  0  0  0  0  0
   -0.9125    0.0000    0.0000 C   0  0  0  0  0  0  0  0  0  0  0  0
   -3.7958    0.5625    0.0000 C   0  0  0  0  0  0  0  0  0  0  0  0
    1.0042    0.0000    0.0000 C   0  0  0  0  0  0  0  0  0  0  0  0
    2.9500    3.3208    0.0000 C   0  0  0  0  0  0  0  0  0  0  0  0
    0.0500    0.5458    0.0000 C   0  0  0  0  0  0  0  0  0  0  0  0
   -1.8708    1.6625    0.0000 O   0  0  0  0  0  0  0  0  0  0  0  0
    1.0292    2.2208    0.0000 O   0  0  0  0  0  0  0  0  0  0  0  0
    4.6042    2.7833    0.0000 C   0  0  0  0  0  0  0  0  0  0  0  0
   -4.7333    0.0208    0.0000 C   0  0  0  0  0  0  0  0  0  0  0  0
    3.9875    3.6458    0.0000 C   0  0  0  0  0  0  0  0  0  0  0  0
   -4.7208   -1.0792    0.0000 Cl  0  0  0  0  0  0  0  0  0  0  0  0
   -0.9125   -1.1167    0.0000 C   0  0  0  0  0  0  0  0  0  0  0  0
    0.0500   -1.6542    0.0000 C   0  0  0  0  0  0  0  0  0  0  0  0
   -3.7708    1.6833    0.0000 C   0  0  0  0  0  0  0  0  0  0  0  0
    1.0042   -1.1000    0.0000 C   0  0  0  0  0  0  0  0  0  0  0  0
   -5.6958    0.5625    0.0000 C   0  0  0  0  0  0  0  0  0  0  0  0
   -4.7333    2.2208    0.0000 C   0  0  0  0  0  0  0  0  0  0  0  0
   -5.6958    1.6833    0.0000 C   0  0  0  0  0  0  0  0  0  0  0  0
  2  7  1  0  0  0  0
  3  2  1  0  0  0  0
  4  1  1  0  0  0  0
  5  1  1  0  0  0  0
  6  4  1  0  0  0  0
  7 11  1  0  0  0  0
  8  3  1  0  0  0  0
  9  5  1  0  0  0  0
 10  4  2  0  0  0  0
 11  9  2  0  0  0  0
 12  2  2  0  0  0  0
 13  1  2  0  0  0  0
 14  6  1  0  0  0  0
 15  8  2  0  0  0  0
 16 10  1  0  0  0  0
 17 15  1  0  0  0  0
 18 19  1  0  0  0  0
 19 21  2  0  0  0  0
 20  8  1  0  0  0  0
 21  9  1  0  0  0  0
 22 15  1  0  0  0  0
 23 20  2  0  0  0  0
 24 23  1  0  0  0  0
 14 16  2  0  0  0  0
  7 18  2  0  0  0  0
 24 22  2  0  0  0  0
M  END
> <#>
1966

> <PLATE>
LAT025

> <ROW>
F

> <COL>
7

> <COORD>
F07

> <LATID>
LAT025F07

> <Supplier>
Chembridge

> <Suplier_CAT#>
5629816

> <Sec_Name>
191_C10

> <Concentration_(mM)>
2.5

> <IC50_(µM)>
17

> <Yeast_Active?>
-

> <Pubchem_CID>
1352893

$$$$
