
  -ISIS-  08130814242D

 23 24  0  0  0  0  0  0  0  0999 V2000
    4.9000    2.2833    0.0000 C   0  0  0  0  0  0  0  0  0  0  0  0
    4.2500    1.9083    0.0000 C   0  0  0  0  0  0  0  0  0  0  0  0
    5.5500    1.9083    0.0000 C   0  0  0  0  0  0  0  0  0  0  0  0
    4.9000    3.0333    0.0000 C   0  0  0  0  0  0  0  0  0  0  0  0
    6.2000    3.0333    0.0000 C   0  0  0  0  0  0  0  0  0  0  0  0
    6.2000    2.2833    0.0000 C   0  0  0  0  0  0  0  0  0  0  0  0
    6.8500    3.4083    0.0000 N   0  0  0  0  0  0  0  0  0  0  0  0
    5.5500    3.4083    0.0000 C   0  0  0  0  0  0  0  0  0  0  0  0
    3.6000    2.2833    0.0000 N   0  0  0  0  0  0  0  0  0  0  0  0
    7.4917    3.0333    0.0000 C   0  0  0  0  0  0  0  0  0  0  0  0
    2.3000    3.0333    0.0000 N   0  0  0  0  0  0  0  0  0  0  0  0
    4.2500    1.1583    0.0000 O   0  0  0  0  0  0  0  0  0  0  0  0
    8.1417    3.4083    0.0000 O   0  0  0  0  0  0  0  0  0  0  0  0
    2.9500    1.9083    0.0000 C   0  0  0  0  0  0  0  0  0  0  0  0
    5.5500    4.1500    0.0000 Cl  0  0  0  0  0  0  0  0  0  0  0  0
    2.3000    2.2833    0.0000 C   0  0  0  0  0  0  0  0  0  0  0  0
    5.5500    1.1583    0.0000 O   0  0  0  0  0  0  0  0  0  0  0  0
    7.4917    2.2833    0.0000 C   0  0  0  0  0  0  0  0  0  0  0  0
    1.6542    3.4083    0.0000 C   0  0  0  0  0  0  0  0  0  0  0  0
    1.6542    1.9083    0.0000 C   0  0  0  0  0  0  0  0  0  0  0  0
    6.2000    0.7833    0.0000 C   0  0  0  0  0  0  0  0  0  0  0  0
    1.0042    3.0333    0.0000 C   0  0  0  0  0  0  0  0  0  0  0  0
    1.0042    2.2833    0.0000 C   0  0  0  0  0  0  0  0  0  0  0  0
  2  1  1  0  0  0  0
  3  1  1  0  0  0  0
  4  1  2  0  0  0  0
  5  8  2  0  0  0  0
  6  3  2  0  0  0  0
  7  5  1  0  0  0  0
  8  4  1  0  0  0  0
  9  2  1  0  0  0  0
 10  7  1  0  0  0  0
 11 16  1  0  0  0  0
 12  2  2  0  0  0  0
 13 10  2  0  0  0  0
 14  9  1  0  0  0  0
 15  8  1  0  0  0  0
 16 14  1  0  0  0  0
 17  3  1  0  0  0  0
 18 10  1  0  0  0  0
 19 11  2  0  0  0  0
 20 16  2  0  0  0  0
 21 17  1  0  0  0  0
 22 23  2  0  0  0  0
 23 20  1  0  0  0  0
  5  6  1  0  0  0  0
 19 22  1  0  0  0  0
M  END
> <#>
1453

> <PLATE>
LAT019

> <ROW>
E

> <COL>
3

> <COORD>
E03

> <LATID>
LAT019E03

> <Supplier>
Chembridge

> <Suplier_CAT#>
9006353

> <Name>
Novel

> <Concentration_(mM)>
2.5

> <IC50_(µM)>
>100

> <Yeast_Active?>
-

> <Pubchem_CID>
2991795

$$$$
