
  -ISIS-  08130814242D

 25 25  0  0  0  0  0  0  0  0999 V2000
   -0.7500    0.3625    0.0000 C   0  0  0  0  0  0  0  0  0  0  0  0
    0.0000   -0.0667    0.0000 C   0  0  0  0  0  0  0  0  0  0  0  0
   -1.5125   -0.0667    0.0000 C   0  0  0  0  0  0  0  0  0  0  0  0
    0.7375    0.3833    0.0000 C   0  0  0  0  0  0  0  0  0  0  0  0
   -2.2708    0.3625    0.0000 C   0  0  0  0  0  0  0  0  0  0  0  0
   -3.0333   -0.0875    0.0000 C   0  0  0  0  0  0  0  0  0  0  0  0
    1.4875   -0.0542    0.0000 C   0  0  0  0  0  0  0  0  0  0  0  0
   -3.7708    0.3208    0.0000 C   0  0  0  0  0  0  0  0  0  0  0  0
    2.2500    0.3833    0.0000 C   0  0  0  0  0  0  0  0  0  0  0  0
    2.9875   -0.0542    0.0000 C   0  0  0  0  0  0  0  0  0  0  0  0
   -4.5208   -0.1167    0.0000 C   0  0  0  0  0  0  0  0  0  0  0  0
    3.7375    0.3833    0.0000 C   0  0  0  0  0  0  0  0  0  0  0  0
   -5.2708    0.3000    0.0000 C   0  0  0  0  0  0  0  0  0  0  0  0
    0.7375    1.2458    0.0000 O   0  0  0  0  0  0  0  0  0  0  0  0
   -2.2708    1.2208    0.0000 O   0  0  0  0  0  0  0  0  0  0  0  0
   -0.7500    1.2208    0.0000 O   0  0  0  0  0  0  0  0  0  0  0  0
    4.4792   -0.0542    0.0000 N   0  0  3  0  0  0  0  0  0  0  0  0
   -6.0000   -0.1375    0.0000 N   0  0  3  0  0  0  0  0  0  0  0  0
   -0.0208   -0.9375    0.0000 C   0  0  0  0  0  0  0  0  0  0  0  0
   -1.5125   -0.9375    0.0000 C   0  0  0  0  0  0  0  0  0  0  0  0
   -0.7625   -1.3667    0.0000 C   0  0  0  0  0  0  0  0  0  0  0  0
    4.4792   -0.9375    0.0000 C   0  0  0  0  0  0  0  0  0  0  0  0
    5.2375    0.3833    0.0000 C   0  0  0  0  0  0  0  0  0  0  0  0
   -6.7500    0.2833    0.0000 C   0  0  0  0  0  0  0  0  0  0  0  0
   -5.9958   -0.9875    0.0000 C   0  0  0  0  0  0  0  0  0  0  0  0
  2  1  1  0  0  0  0
  3  1  2  0  0  0  0
  4  2  1  0  0  0  0
  5  3  1  0  0  0  0
  6  5  1  0  0  0  0
  7  4  1  0  0  0  0
  8  6  2  0  0  0  0
  9  7  2  0  0  0  0
 10  9  1  0  0  0  0
 11  8  1  0  0  0  0
 12 10  2  0  0  0  0
 13 11  2  0  0  0  0
 14  4  2  0  0  0  0
 15  5  2  0  0  0  0
 16  1  1  0  0  0  0
 17 12  1  0  0  0  0
 18 13  1  0  0  0  0
 19  2  2  0  0  0  0
 20  3  1  0  0  0  0
 21 20  2  0  0  0  0
 22 17  1  0  0  0  0
 23 17  1  0  0  0  0
 24 18  1  0  0  0  0
 25 18  1  0  0  0  0
 19 21  1  0  0  0  0
M  END
> <#>
1123

> <PLATE>
LAT015

> <ROW>
C

> <COL>
2

> <COORD>
C02

> <LATID>
LAT015C02

> <Supplier>
Chembridge

> <Suplier_CAT#>
5195151

> <Name>
Novel

> <Concentration_(mM)>
2.5

> <IC50_(µM)>
inactive

> <Yeast_Active?>
-

> <Pubchem_CID>
2265572

$$$$
