
  -ISIS-  08130814242D

 32 35  0  0  0  0  0  0  0  0999 V2000
    3.1875   -3.2292    0.0000 N   0  0  3  0  0  0  0  0  0  0  0  0
    3.0125   -2.4292    0.0000 C   0  0  0  0  0  0  0  0  0  0  0  0
    3.7292   -2.0167    0.0000 N   0  0  0  0  0  0  0  0  0  0  0  0
    4.0042   -3.3167    0.0000 C   0  0  0  0  0  0  0  0  0  0  0  0
    4.3417   -2.5667    0.0000 N   0  0  0  0  0  0  0  0  0  0  0  0
    2.6292   -3.8417    0.0000 C   0  0  0  0  0  0  0  0  0  0  0  0
    4.4167   -4.0375    0.0000 S   0  0  0  0  0  0  0  0  0  0  0  0
    5.6542   -4.7375    0.0000 C   0  0  0  0  0  0  0  0  0  0  0  0
    2.2542   -2.0917    0.0000 C   0  0  0  0  0  0  0  0  0  0  0  0
    6.4792   -4.7375    0.0000 N   0  0  0  0  0  0  0  0  0  0  0  0
    5.2500   -5.4500    0.0000 O   0  0  0  0  0  0  0  0  0  0  0  0
    2.8917   -4.6292    0.0000 C   0  0  0  0  0  0  0  0  0  0  0  0
    1.8292   -3.6750    0.0000 C   0  0  0  0  0  0  0  0  0  0  0  0
    5.2417   -4.0375    0.0000 C   0  0  0  0  0  0  0  0  0  0  0  0
    6.8917   -5.4417    0.0000 C   0  0  0  0  0  0  0  0  0  0  0  0
    1.5292   -5.0667    0.0000 C   0  0  0  0  0  0  0  0  0  0  0  0
    1.2792   -4.2875    0.0000 C   0  0  0  0  0  0  0  0  0  0  0  0
    2.3417   -5.2417    0.0000 C   0  0  0  0  0  0  0  0  0  0  0  0
    7.7042   -5.4375    0.0000 C   0  0  0  0  0  0  0  0  0  0  0  0
    0.9792   -5.6792    0.0000 O   0  0  0  0  0  0  0  0  0  0  0  0
    1.6000   -2.5792    0.0000 C   0  0  0  0  0  0  0  0  0  0  0  0
    2.1750   -1.2750    0.0000 C   0  0  0  0  0  0  0  0  0  0  0  0
    1.2375   -6.4667    0.0000 C   0  0  0  0  0  0  0  0  0  0  0  0
    8.1042   -6.1417    0.0000 C   0  0  0  0  0  0  0  0  0  0  0  0
    8.1042   -4.7417    0.0000 C   0  0  0  0  0  0  0  0  0  0  0  0
    0.6875   -7.0792    0.0000 C   0  0  0  0  0  0  0  0  0  0  0  0
    1.4250   -0.9375    0.0000 C   0  0  0  0  0  0  0  0  0  0  0  0
    0.8417   -2.2417    0.0000 C   0  0  0  0  0  0  0  0  0  0  0  0
    8.9167   -4.7417    0.0000 C   0  0  0  0  0  0  0  0  0  0  0  0
    8.9125   -6.1500    0.0000 C   0  0  0  0  0  0  0  0  0  0  0  0
    0.7542   -1.4167    0.0000 C   0  0  0  0  0  0  0  0  0  0  0  0
    9.3167   -5.4417    0.0000 C   0  0  0  0  0  0  0  0  0  0  0  0
  2  1  1  0  0  0  0
  3  2  2  0  0  0  0
  4  1  1  0  0  0  0
  5  4  2  0  0  0  0
  6  1  1  0  0  0  0
  7  4  1  0  0  0  0
  8 14  1  0  0  0  0
  9  2  1  0  0  0  0
 10  8  1  0  0  0  0
 11  8  2  0  0  0  0
 12  6  1  0  0  0  0
 13  6  2  0  0  0  0
 14  7  1  0  0  0  0
 15 10  1  0  0  0  0
 16 17  2  0  0  0  0
 17 13  1  0  0  0  0
 18 12  2  0  0  0  0
 19 15  1  0  0  0  0
 20 16  1  0  0  0  0
 21  9  1  0  0  0  0
 22  9  2  0  0  0  0
 23 20  1  0  0  0  0
 24 19  2  0  0  0  0
 25 19  1  0  0  0  0
 26 23  1  0  0  0  0
 27 22  1  0  0  0  0
 28 21  2  0  0  0  0
 29 25  2  0  0  0  0
 30 24  1  0  0  0  0
 31 27  2  0  0  0  0
 32 29  1  0  0  0  0
  5  3  1  0  0  0  0
 18 16  1  0  0  0  0
 31 28  1  0  0  0  0
 32 30  2  0  0  0  0
M  END
> <#>
1734

> <PLATE>
LAT022

> <ROW>
F

> <COL>
8

> <COORD>
F08

> <LATID>
LAT022F08

> <Supplier>
Chembridge

> <Suplier_CAT#>
7609556

> <Name>
Novel

> <Concentration_(mM)>
2.5

> <IC50_(µM)>
inactive

> <Yeast_Active?>
-

> <Pubchem_CID>
1317412

$$$$
