
  -ISIS-  08130814242D

 19 20  0  0  0  0  0  0  0  0999 V2000
   -1.8500   -0.4000    0.0000 S   0  0  3  0  0  0  0  0  0  0  0  0
   -0.7125   -0.4000    0.0000 C   0  0  0  0  0  0  0  0  0  0  0  0
   -1.8500   -1.5375    0.0000 O   0  0  0  0  0  0  0  0  0  0  0  0
   -1.8500    0.7625    0.0000 O   0  0  0  0  0  0  0  0  0  0  0  0
   -3.0125   -0.4000    0.0000 C   0  0  0  0  0  0  0  0  0  0  0  0
   -0.1458   -1.3667    0.0000 C   0  0  0  0  0  0  0  0  0  0  0  0
   -0.1458    0.5958    0.0000 C   0  0  0  0  0  0  0  0  0  0  0  0
    1.5667   -0.4000    0.0000 C   0  0  0  0  0  0  0  0  0  0  0  0
    2.7042   -0.4000    0.0000 S   0  0  0  0  0  0  0  0  0  0  0  0
    1.0167    0.5958    0.0000 C   0  0  0  0  0  0  0  0  0  0  0  0
    1.0000   -1.3667    0.0000 C   0  0  0  0  0  0  0  0  0  0  0  0
    4.9375    1.5458    0.0000 O   0  0  0  0  0  0  0  0  0  0  0  0
   -3.5625    0.5958    0.0000 C   0  0  0  0  0  0  0  0  0  0  0  0
   -3.5625   -1.3667    0.0000 C   0  0  0  0  0  0  0  0  0  0  0  0
    3.2667    0.5958    0.0000 C   0  0  0  0  0  0  0  0  0  0  0  0
    4.3667    0.6000    0.0000 C   0  0  0  0  0  0  0  0  0  0  0  0
   -4.6958   -1.3667    0.0000 C   0  0  0  0  0  0  0  0  0  0  0  0
   -4.7208    0.5958    0.0000 C   0  0  0  0  0  0  0  0  0  0  0  0
   -5.2708   -0.4000    0.0000 C   0  0  0  0  0  0  0  0  0  0  0  0
  2  1  1  0  0  0  0
  3  1  2  0  0  0  0
  4  1  2  0  0  0  0
  5  1  1  0  0  0  0
  6  2  1  0  0  0  0
  7  2  2  0  0  0  0
  8 10  2  0  0  0  0
  9  8  1  0  0  0  0
 10  7  1  0  0  0  0
 11  6  2  0  0  0  0
 12 16  1  0  0  0  0
 13  5  2  0  0  0  0
 14  5  1  0  0  0  0
 15  9  1  0  0  0  0
 16 15  1  0  0  0  0
 17 14  2  0  0  0  0
 18 13  1  0  0  0  0
 19 17  1  0  0  0  0
  8 11  1  0  0  0  0
 18 19  2  0  0  0  0
M  END
> <#>
1774

> <PLATE>
LAT023

> <ROW>
F

> <COL>
3

> <COORD>
F03

> <LATID>
LAT023F03

> <Supplier>
Chembridge

> <Suplier_CAT#>
5539898

> <Name>
Novel

> <Sec_Name>
155_H07

> <Concentration_(mM)>
2.5

> <IC50_(µM)>
1.5

> <Yeast_Active?>
-

> <Pubchem_CID>
1555860

$$$$
