
  -ISIS-  08130814242D

 31 33  0  0  0  0  0  0  0  0999 V2000
    4.4542    3.6958    0.0000 S   0  0  3  0  0  0  0  0  0  0  0  0
    4.9875    3.1708    0.0000 N   0  0  3  0  0  0  0  0  0  0  0  0
    4.7917    2.4375    0.0000 C   0  0  0  0  0  0  0  0  0  0  0  0
    3.8042    3.3208    0.0000 C   0  0  0  0  0  0  0  0  0  0  0  0
    5.3250    1.9083    0.0000 C   0  0  0  0  0  0  0  0  0  0  0  0
    5.0292    4.1667    0.0000 O   0  0  0  0  0  0  0  0  0  0  0  0
    4.0250    4.3042    0.0000 O   0  0  0  0  0  0  0  0  0  0  0  0
    5.7125    3.3583    0.0000 C   0  0  0  0  0  0  0  0  0  0  0  0
    5.1292    1.1833    0.0000 N   0  0  0  0  0  0  0  0  0  0  0  0
    4.7417   -0.2667    0.0000 N   0  0  0  0  0  0  0  0  0  0  0  0
    6.0417    2.1000    0.0000 O   0  0  0  0  0  0  0  0  0  0  0  0
    3.1542    3.6958    0.0000 C   0  0  0  0  0  0  0  0  0  0  0  0
    3.8042    2.5708    0.0000 C   0  0  0  0  0  0  0  0  0  0  0  0
    6.2417    2.8333    0.0000 C   0  0  0  0  0  0  0  0  0  0  0  0
    5.9042    4.0750    0.0000 C   0  0  0  0  0  0  0  0  0  0  0  0
    5.4667   -0.0667    0.0000 C   0  0  0  0  0  0  0  0  0  0  0  0
    5.6542    0.6583    0.0000 C   0  0  0  0  0  0  0  0  0  0  0  0
    7.1542    3.7458    0.0000 C   0  0  0  0  0  0  0  0  0  0  0  0
    2.5042    2.5708    0.0000 C   0  0  0  0  0  0  0  0  0  0  0  0
    6.6292    4.2667    0.0000 C   0  0  0  0  0  0  0  0  0  0  0  0
    6.9667    3.0208    0.0000 C   0  0  0  0  0  0  0  0  0  0  0  0
    3.1542    2.1958    0.0000 C   0  0  0  0  0  0  0  0  0  0  0  0
    2.5042    3.3208    0.0000 C   0  0  0  0  0  0  0  0  0  0  0  0
    7.8792    3.9375    0.0000 F   0  0  0  0  0  0  0  0  0  0  0  0
    1.8542    2.1958    0.0000 O   0  0  0  0  0  0  0  0  0  0  0  0
    4.5417   -0.9917    0.0000 C   0  0  0  0  0  0  0  0  0  0  0  0
    1.2042    2.5708    0.0000 C   0  0  0  0  0  0  0  0  0  0  0  0
    5.9917   -0.6000    0.0000 C   0  0  0  0  0  0  0  0  0  0  0  0
    0.5542    2.1958    0.0000 C   0  0  0  0  0  0  0  0  0  0  0  0
    5.0750   -1.5167    0.0000 C   0  0  0  0  0  0  0  0  0  0  0  0
    5.8000   -1.3250    0.0000 C   0  0  0  0  0  0  0  0  0  0  0  0
  2  1  1  0  0  0  0
  3  2  1  0  0  0  0
  4  1  1  0  0  0  0
  5  3  1  0  0  0  0
  6  1  2  0  0  0  0
  7  1  2  0  0  0  0
  8  2  1  0  0  0  0
  9  5  1  0  0  0  0
 10 16  1  0  0  0  0
 11  5  2  0  0  0  0
 12  4  2  0  0  0  0
 13  4  1  0  0  0  0
 14  8  2  0  0  0  0
 15  8  1  0  0  0  0
 16 17  1  0  0  0  0
 17  9  1  0  0  0  0
 18 20  1  0  0  0  0
 19 22  1  0  0  0  0
 20 15  2  0  0  0  0
 21 14  1  0  0  0  0
 22 13  2  0  0  0  0
 23 12  1  0  0  0  0
 24 18  1  0  0  0  0
 25 19  1  0  0  0  0
 26 10  2  0  0  0  0
 27 25  1  0  0  0  0
 28 16  2  0  0  0  0
 29 27  1  0  0  0  0
 30 31  2  0  0  0  0
 31 28  1  0  0  0  0
 19 23  2  0  0  0  0
 21 18  2  0  0  0  0
 26 30  1  0  0  0  0
M  END
> <#>
1484

> <PLATE>
LAT019

> <ROW>
D

> <COL>
7

> <COORD>
D07

> <LATID>
LAT019D07

> <Supplier>
Chembridge

> <Suplier_CAT#>
7960624

> <Name>
Novel

> <Concentration_(mM)>
2.5

> <IC50_(µM)>
90

> <Yeast_Active?>
-

> <Pubchem_CID>
2229486

$$$$
