
  -ISIS-  08130814242D

 20 21  0  0  0  0  0  0  0  0999 V2000
    4.0292   -2.0292    0.0000 N   0  3  0  0  0  0  0  0  0  0  0  0
    3.3000   -1.2792    0.0000 C   0  0  0  0  0  0  0  0  0  0  0  0
    1.5375   -0.7792    0.0000 C   0  0  0  0  0  0  0  0  0  0  0  0
    3.5792   -0.2542    0.0000 C   0  0  0  0  0  0  0  0  0  0  0  0
    2.8375    0.5000    0.0000 C   0  0  0  0  0  0  0  0  0  0  0  0
    1.8167    0.2208    0.0000 C   0  0  0  0  0  0  0  0  0  0  0  0
    2.2792   -1.5375    0.0000 C   0  0  0  0  0  0  0  0  0  0  0  0
    0.5000   -1.0375    0.0000 C   0  0  0  0  0  0  0  0  0  0  0  0
   -0.2208   -0.2792    0.0000 N   0  0  0  0  0  0  0  0  0  0  0  0
   -1.5458   -1.5375    0.0000 N   0  0  0  0  0  0  0  0  0  0  0  0
   -1.2458   -0.5375    0.0000 C   0  0  0  0  0  0  0  0  0  0  0  0
    3.8375   -3.0875    0.0000 O   0  5  0  0  0  0  0  0  0  0  0  0
    5.0542   -1.8375    0.0000 O   0  0  0  0  0  0  0  0  0  0  0  0
    3.1042    1.5208    0.0000 Br  0  0  0  0  0  0  0  0  0  0  0  0
   -2.5833   -1.8000    0.0000 C   0  0  0  0  0  0  0  0  0  0  0  0
    1.0542    0.9833    0.0000 O   0  0  0  0  0  0  0  0  0  0  0  0
   -1.9708    0.2458    0.0000 C   0  0  0  0  0  0  0  0  0  0  0  0
   -3.3000   -1.0167    0.0000 C   0  0  0  0  0  0  0  0  0  0  0  0
   -2.9833    0.0000    0.0000 C   0  0  0  0  0  0  0  0  0  0  0  0
   -4.3333   -1.2500    0.0000 C   0  0  0  0  0  0  0  0  0  0  0  0
  2  1  1  0  0  0  0
  3  7  1  0  0  0  0
  4  2  1  0  0  0  0
  5  4  2  0  0  0  0
  6  3  2  0  0  0  0
  7  2  2  0  0  0  0
  8  3  1  0  0  0  0
  9  8  2  0  0  0  0
 10 11  2  0  0  0  0
 11  9  1  0  0  0  0
 12  1  1  0  0  0  0
 13  1  2  0  0  0  0
 14  5  1  0  0  0  0
 15 10  1  0  0  0  0
 16  6  1  0  0  0  0
 17 11  1  0  0  0  0
 18 19  1  0  0  0  0
 19 17  2  0  0  0  0
 20 18  1  0  0  0  0
  5  6  1  0  0  0  0
 15 18  2  0  0  0  0
M  CHG  2   1   1  12  -1
M  END
> <#>
692

> <PLATE>
LAT009

> <ROW>
D

> <COL>
8

> <COORD>
D08

> <LATID>
LAT009D08

> <Supplier>
Chembridge

> <Suplier_CAT#>
5556541

> <Name>
Novel

> <Sec_Name>
166_E06

> <Concentration_(mM)>
2.5

> <IC50_(µM)>
27

> <Yeast_Active?>
-

> <Pubchem_CID>
NULL

$$$$
