
  -ISIS-  08130814242D

 18 20  0  0  0  0  0  0  0  0999 V2000
    1.4542   -5.1500    0.0000 C   0  0  3  0  0  0  0  0  0  0  0  0
    1.0667   -4.4167    0.0000 O   0  0  0  0  0  0  0  0  0  0  0  0
    0.2417   -4.7542    0.0000 C   0  0  2  0  0  0  0  0  0  0  0  0
    2.4875   -4.6792    0.0000 C   0  0  1  0  0  0  0  0  0  0  0  0
    3.0417   -5.3000    0.0000 O   0  0  0  0  0  0  0  0  0  0  0  0
    3.7875   -4.9667    0.0000 C   0  0  0  0  0  0  0  0  0  0  0  0
    3.7042   -4.1417    0.0000 C   0  0  0  0  0  0  0  0  0  0  0  0
    2.9000   -3.9667    0.0000 C   0  0  2  0  0  0  0  0  0  0  0  0
    2.5917   -3.2000    0.0000 C   0  0  0  0  0  0  0  0  0  0  0  0
    4.5000   -5.3917    0.0000 O   0  0  0  0  0  0  0  0  0  0  0  0
    1.1667   -3.2292    0.0000 C   0  0  0  0  0  0  0  0  0  0  0  0
    4.3250   -3.5917    0.0000 C   0  0  0  0  0  0  0  0  0  0  0  0
    0.4375   -2.8292    0.0000 C   0  0  0  0  0  0  0  0  0  0  0  0
    1.8750   -2.8042    0.0000 C   0  0  0  0  0  0  0  0  0  0  0  0
   -0.2500   -4.0917    0.0000 C   0  0  0  0  0  0  0  0  0  0  0  0
   -0.3208   -5.3542    0.0000 C   0  0  0  0  0  0  0  0  0  0  0  0
   -0.2708   -3.2625    0.0000 C   0  0  0  0  0  0  0  0  0  0  0  0
    1.4917   -3.9000    0.0000 C   0  0  0  0  0  0  0  0  0  0  0  0
  2  1  1  6  0  0  0
  3  1  1  0  0  0  0
  4  1  1  0  0  0  0
  4  5  1  6  0  0  0
  6  5  1  0  0  0  0
  8  7  1  1  0  0  0
  8  4  1  0  0  0  0
  9  8  1  0  0  0  0
 10  6  2  0  0  0  0
 11 14  1  0  0  0  0
 12  7  2  0  0  0  0
 13 17  1  0  0  0  0
 14  9  1  0  0  0  0
 15  3  1  0  0  0  0
  3 16  1  1  0  0  0
 17 15  1  0  0  0  0
 18 11  1  0  0  0  0
  3  2  1  6  0  0  0
  6  7  1  0  0  0  0
 11 13  2  0  0  0  0
M  END
> <#>
166

> <PLATE>
LAT003

> <ROW>
F

> <COL>
2

> <COORD>
F02

> <LATID>
LAT003F02

> <Supplier>
Microsource

> <Suplier_CAT#>
01503640

> <Name>
Parthenolide

> <Concentration_(mM)>
2.5

> <IC50_(µM)>
54

> <Yeast_Active?>
-

> <Pubchem_CID>
4692

> <Description>
Antiinflammatory, Immune Suppressant

> <Source>
Natural Product; ex Chrysanthemum parthenicum

$$$$
