
  -ISIS-  08130814242D

 15 16  0  0  0  0  0  0  0  0999 V2000
    3.4000    0.8333    0.0000 C   0  0  0  0  0  0  0  0  0  0  0  0
    3.2500    2.3333    0.0000 N   0  0  0  0  0  0  0  0  0  0  0  0
    2.0042    0.2000    0.0000 S   0  0  0  0  0  0  0  0  0  0  0  0
    1.0000    1.3458    0.0000 C   0  0  0  0  0  0  0  0  0  0  0  0
    1.7500    2.6625    0.0000 C   0  0  0  0  0  0  0  0  0  0  0  0
   -1.3333    0.0000    0.0000 C   0  0  0  0  0  0  0  0  0  0  0  0
   -2.8708    0.0000    0.0000 C   0  0  0  0  0  0  0  0  0  0  0  0
   -0.5625    1.3458    0.0000 C   0  0  0  0  0  0  0  0  0  0  0  0
   -3.6208   -1.3292    0.0000 C   0  0  0  0  0  0  0  0  0  0  0  0
    4.7500    0.0625    0.0000 N   0  0  0  0  0  0  0  0  0  0  0  0
   -3.6458    1.3208    0.0000 Cl  0  0  0  0  0  0  0  0  0  0  0  0
   -5.1625   -1.3292    0.0000 Cl  0  0  0  0  0  0  0  0  0  0  0  0
   -0.5833   -1.3292    0.0000 C   0  0  0  0  0  0  0  0  0  0  0  0
   -1.3333   -2.6500    0.0000 C   0  0  0  0  0  0  0  0  0  0  0  0
   -2.8708   -2.6500    0.0000 C   0  0  0  0  0  0  0  0  0  0  0  0
  2  1  2  0  0  0  0
  3  1  1  0  0  0  0
  4  3  1  0  0  0  0
  5  2  1  0  0  0  0
  6  8  1  0  0  0  0
  7  6  1  0  0  0  0
  8  4  1  0  0  0  0
  9  7  2  0  0  0  0
 10  1  1  0  0  0  0
 11  7  1  0  0  0  0
 12  9  1  0  0  0  0
 13  6  2  0  0  0  0
 14 13  1  0  0  0  0
 15 14  2  0  0  0  0
  4  5  2  0  0  0  0
 15  9  1  0  0  0  0
M  END
> <#>
1857

> <PLATE>
LAT024

> <ROW>
A

> <COL>
4

> <COORD>
A04

> <LATID>
LAT024A04

> <Supplier>
Chembridge

> <Suplier_CAT#>
5753867

> <Name>
Thiazomine

> <Sec_Name>
238_E08

> <Concentration_(mM)>
2.5

> <IC50_(µM)>
0.35

> <Yeast_Active?>
-

> <Pubchem_CID>
717338

$$$$
