
  -ISIS-  08130814242D

 22 23  0  0  0  0  0  0  0  0999 V2000
   -2.0708    1.5833    0.0000 C   0  0  0  0  0  0  0  0  0  0  0  0
   -2.8125    2.0000    0.0000 C   0  0  0  0  0  0  0  0  0  0  0  0
   -3.5500    1.5625    0.0000 C   0  0  0  0  0  0  0  0  0  0  0  0
   -1.3333    2.0000    0.0000 C   0  0  0  0  0  0  0  0  0  0  0  0
   -2.0708    0.7208    0.0000 C   0  0  0  0  0  0  0  0  0  0  0  0
   -3.5500    0.7208    0.0000 C   0  0  0  0  0  0  0  0  0  0  0  0
   -2.8125    0.3000    0.0000 C   0  0  0  0  0  0  0  0  0  0  0  0
   -0.6125    1.5833    0.0000 C   0  0  0  0  0  0  0  0  0  0  0  0
   -1.3333    2.8625    0.0000 O   0  0  0  0  0  0  0  0  0  0  0  0
    0.1500    2.0208    0.0000 O   0  0  0  0  0  0  0  0  0  0  0  0
   -2.8125    2.8458    0.0000 O   0  0  0  0  0  0  0  0  0  0  0  0
    0.8542    1.5833    0.0000 C   0  0  0  0  0  0  0  0  0  0  0  0
   -4.2958    0.2833    0.0000 O   0  0  0  0  0  0  0  0  0  0  0  0
    2.3500    0.7458    0.0000 C   0  0  0  0  0  0  0  0  0  0  0  0
    0.8542    0.7458    0.0000 C   0  0  0  0  0  0  0  0  0  0  0  0
    1.6000    2.0208    0.0000 C   0  0  0  0  0  0  0  0  0  0  0  0
   -4.2958    1.9833    0.0000 C   0  0  0  0  0  0  0  0  0  0  0  0
    1.6000    0.3208    0.0000 C   0  0  0  0  0  0  0  0  0  0  0  0
    2.3500    1.5833    0.0000 C   0  0  0  0  0  0  0  0  0  0  0  0
    3.1000    0.3000    0.0000 C   0  0  0  0  0  0  0  0  0  0  0  0
    3.8500    0.7458    0.0000 C   0  0  0  0  0  0  0  0  0  0  0  0
    4.5542    0.3000    0.0000 C   0  0  0  0  0  0  0  0  0  0  0  0
  2  1  1  0  0  0  0
  3  2  2  0  0  0  0
  4  1  1  0  0  0  0
  5  1  2  0  0  0  0
  6  7  2  0  0  0  0
  7  5  1  0  0  0  0
  8  4  1  0  0  0  0
  9  4  2  0  0  0  0
 10  8  1  0  0  0  0
 11  2  1  0  0  0  0
 12 10  1  0  0  0  0
 13  6  1  0  0  0  0
 14 19  2  0  0  0  0
 15 12  1  0  0  0  0
 16 12  2  0  0  0  0
 17  3  1  0  0  0  0
 18 15  2  0  0  0  0
 19 16  1  0  0  0  0
 20 14  1  0  0  0  0
 21 20  1  0  0  0  0
 22 21  1  0  0  0  0
  6  3  1  0  0  0  0
 18 14  1  0  0  0  0
M  END
> <#>
1278

> <PLATE>
LAT016

> <ROW>
F

> <COL>
11

> <COORD>
F11

> <LATID>
LAT016F11

> <Supplier>
Chembridge

> <Suplier_CAT#>
6679025

> <Name>
Novel

> <Concentration_(mM)>
2.5

> <IC50_(µM)>
inactive

> <Yeast_Active?>
-

> <Pubchem_CID>
805460

$$$$
