
  -ISIS-  08130814242D

 19 21  0  0  0  0  0  0  0  0999 V2000
    4.6167    3.5000    0.0000 C   0  0  0  0  0  0  0  0  0  0  0  0
    3.4042    4.1917    0.0000 C   0  0  0  0  0  0  0  0  0  0  0  0
    4.6167    2.1000    0.0000 C   0  0  0  0  0  0  0  0  0  0  0  0
    3.4042    1.4000    0.0000 C   0  0  0  0  0  0  0  0  0  0  0  0
    2.1917    3.5000    0.0000 C   0  0  0  0  0  0  0  0  0  0  0  0
    2.1917    2.1000    0.0000 C   0  0  0  0  0  0  0  0  0  0  0  0
    5.8292    4.1917    0.0000 C   0  0  0  0  0  0  0  0  0  0  0  0
    5.8292    1.4000    0.0000 C   0  0  0  0  0  0  0  0  0  0  0  0
    3.4042    5.5417    0.0000 O   0  0  0  0  0  0  0  0  0  0  0  0
    7.0417    3.5000    0.0000 C   0  0  0  0  0  0  0  0  0  0  0  0
    3.4042    0.0000    0.0000 O   0  0  0  0  0  0  0  0  0  0  0  0
    7.0417    2.1000    0.0000 C   0  0  0  0  0  0  0  0  0  0  0  0
    5.8292    5.5417    0.0000 O   0  0  0  0  0  0  0  0  0  0  0  0
    0.9792    4.1917    0.0000 C   0  0  0  0  0  0  0  0  0  0  0  0
    8.2542    4.1917    0.0000 O   0  0  0  0  0  0  0  0  0  0  0  0
    0.9792    1.4000    0.0000 C   0  0  0  0  0  0  0  0  0  0  0  0
    9.4667    3.5000    0.0000 C   0  0  0  0  0  0  0  0  0  0  0  0
    0.0000    2.1000    0.0000 C   0  0  0  0  0  0  0  0  0  0  0  0
    0.0000    3.5000    0.0000 C   0  0  0  0  0  0  0  0  0  0  0  0
  2  1  1  0  0  0  0
  3  1  2  0  0  0  0
  4  3  1  0  0  0  0
  5  2  1  0  0  0  0
  6  4  1  0  0  0  0
  7  1  1  0  0  0  0
  8  3  1  0  0  0  0
  9  2  2  0  0  0  0
 10  7  2  0  0  0  0
 11  4  2  0  0  0  0
 12 10  1  0  0  0  0
 13  7  1  0  0  0  0
 14  5  2  0  0  0  0
 15 10  1  0  0  0  0
 16  6  2  0  0  0  0
 17 15  1  0  0  0  0
 18 16  1  0  0  0  0
 19 14  1  0  0  0  0
  8 12  2  0  0  0  0
  6  5  1  0  0  0  0
 18 19  2  0  0  0  0
M  END
> <#>
1375

> <PLATE>
LAT018

> <ROW>
G

> <COL>
3

> <COORD>
G03

> <LATID>
LAT018G03

> <Supplier>
Chembridge

> <Suplier_CAT#>
7448348

> <Name>
Novel

> <Concentration_(mM)>
2.5

> <IC50_(µM)>
inactive

> <Yeast_Active?>
-

> <Pubchem_CID>
NULL

$$$$
