
  -ISIS-  08130814242D

 23 24  0  0  0  0  0  0  0  0999 V2000
    3.5917   -2.0917    0.0000 N   0  0  0  0  0  0  0  0  0  0  0  0
    3.5875   -2.9125    0.0000 C   0  0  0  0  0  0  0  0  0  0  0  0
    5.7292   -4.1542    0.0000 C   0  0  0  0  0  0  0  0  0  0  0  0
    4.3000   -3.3292    0.0000 C   0  0  0  0  0  0  0  0  0  0  0  0
    6.4417   -5.3917    0.0000 N   0  0  0  0  0  0  0  0  0  0  0  0
    2.8667   -3.3292    0.0000 C   0  0  0  0  0  0  0  0  0  0  0  0
    4.3042   -1.6792    0.0000 O   0  0  0  0  0  0  0  0  0  0  0  0
    2.8750   -1.6750    0.0000 O   0  0  0  0  0  0  0  0  0  0  0  0
    5.0167   -2.9167    0.0000 O   0  0  0  0  0  0  0  0  0  0  0  0
    6.4417   -4.5667    0.0000 N   0  0  0  0  0  0  0  0  0  0  0  0
    5.0167   -4.5667    0.0000 O   0  0  0  0  0  0  0  0  0  0  0  0
    9.3042   -5.3917    0.0000 N   0  0  0  0  0  0  0  0  0  0  0  0
    5.7292   -3.3292    0.0000 C   0  0  0  0  0  0  0  0  0  0  0  0
    7.1625   -5.8042    0.0000 C   0  0  0  0  0  0  0  0  0  0  0  0
    4.3000   -4.1667    0.0000 C   0  0  0  0  0  0  0  0  0  0  0  0
    7.8792   -5.3917    0.0000 C   0  0  0  0  0  0  0  0  0  0  0  0
    2.8667   -4.1667    0.0000 C   0  0  0  0  0  0  0  0  0  0  0  0
    3.5875   -4.5667    0.0000 C   0  0  0  0  0  0  0  0  0  0  0  0
    8.5917   -5.8042    0.0000 C   0  0  0  0  0  0  0  0  0  0  0  0
    9.3042   -4.5667    0.0000 C   0  0  0  0  0  0  0  0  0  0  0  0
    7.8792   -4.5667    0.0000 C   0  0  0  0  0  0  0  0  0  0  0  0
    2.1542   -4.5667    0.0000 C   0  0  0  0  0  0  0  0  0  0  0  0
    8.5917   -4.1542    0.0000 C   0  0  0  0  0  0  0  0  0  0  0  0
  2  1  1  0  0  0  0
  3 13  1  0  0  0  0
  4  2  1  0  0  0  0
  5 10  1  0  0  0  0
  6  2  2  0  0  0  0
  7  1  2  0  0  0  0
  8  1  2  0  0  0  0
  9  4  1  0  0  0  0
 10  3  1  0  0  0  0
 11  3  2  0  0  0  0
 12 19  2  0  0  0  0
 13  9  1  0  0  0  0
 14  5  2  0  0  0  0
 15  4  2  0  0  0  0
 16 14  1  0  0  0  0
 17  6  1  0  0  0  0
 18 17  2  0  0  0  0
 19 16  1  0  0  0  0
 20 23  2  0  0  0  0
 21 16  2  0  0  0  0
 22 17  1  0  0  0  0
 23 21  1  0  0  0  0
 18 15  1  0  0  0  0
 20 12  1  0  0  0  0
M  END
> <#>
1880

> <PLATE>
LAT024

> <ROW>
H

> <COL>
6

> <COORD>
H06

> <LATID>
LAT024H06

> <Supplier>
Pharmeks

> <Suplier_CAT#>
PHAR128003

> <Name>
Novel

> <Concentration_(mM)>
2.5

> <IC50_(µM)>
>100

> <Yeast_Active?>
-

> <Pubchem_CID>
NULL

$$$$
