
  -ISIS-  08130814242D

 27 29  0  0  0  0  0  0  0  0999 V2000
    1.6542    0.5333    0.0000 N   0  0  3  0  0  0  0  0  0  0  0  0
    2.4792    0.5333    0.0000 C   0  0  0  0  0  0  0  0  0  0  0  0
    2.7375    1.3208    0.0000 N   0  0  0  0  0  0  0  0  0  0  0  0
    2.0667    1.8000    0.0000 N   0  0  0  0  0  0  0  0  0  0  0  0
    1.4042    1.3208    0.0000 N   0  0  0  0  0  0  0  0  0  0  0  0
    2.9667   -0.1375    0.0000 S   0  0  0  0  0  0  0  0  0  0  0  0
    1.0667   -0.0542    0.0000 C   0  0  0  0  0  0  0  0  0  0  0  0
   -0.7083   -1.7917    0.0000 C   0  0  0  0  0  0  0  0  0  0  0  0
    5.0250   -0.8417    0.0000 C   0  0  0  0  0  0  0  0  0  0  0  0
    5.4375   -1.5625    0.0000 C   0  0  0  0  0  0  0  0  0  0  0  0
    6.2625   -1.5542    0.0000 C   0  0  0  0  0  0  0  0  0  0  0  0
    4.2042   -0.8500    0.0000 C   0  0  0  0  0  0  0  0  0  0  0  0
   -0.1208   -1.2167    0.0000 C   0  0  0  0  0  0  0  0  0  0  0  0
    6.6750   -0.8417    0.0000 C   0  0  0  0  0  0  0  0  0  0  0  0
    3.7917   -0.1375    0.0000 C   0  0  0  0  0  0  0  0  0  0  0  0
   -1.5000   -1.5792    0.0000 O   0  0  0  0  0  0  0  0  0  0  0  0
    5.4292   -0.1292    0.0000 C   0  0  0  0  0  0  0  0  0  0  0  0
    0.2625    0.1708    0.0000 C   0  0  0  0  0  0  0  0  0  0  0  0
    1.2750   -0.8500    0.0000 C   0  0  0  0  0  0  0  0  0  0  0  0
    3.7917   -1.5625    0.0000 O   0  0  0  0  0  0  0  0  0  0  0  0
   -0.3333   -0.4125    0.0000 C   0  0  0  0  0  0  0  0  0  0  0  0
    0.6875   -1.4292    0.0000 C   0  0  0  0  0  0  0  0  0  0  0  0
    6.2542   -0.1292    0.0000 C   0  0  0  0  0  0  0  0  0  0  0  0
   -0.4958   -2.5917    0.0000 O   0  0  0  0  0  0  0  0  0  0  0  0
    6.6750   -2.2750    0.0000 O   0  0  0  0  0  0  0  0  0  0  0  0
    7.5000   -0.8417    0.0000 O   0  0  0  0  0  0  0  0  0  0  0  0
   -1.0833   -3.1750    0.0000 C   0  0  0  0  0  0  0  0  0  0  0  0
  2  1  1  0  0  0  0
  3  2  2  0  0  0  0
  4  5  2  0  0  0  0
  5  1  1  0  0  0  0
  6  2  1  0  0  0  0
  7  1  1  0  0  0  0
  8 13  1  0  0  0  0
  9 12  1  0  0  0  0
 10  9  2  0  0  0  0
 11 10  1  0  0  0  0
 12 15  1  0  0  0  0
 13 22  1  0  0  0  0
 14 23  1  0  0  0  0
 15  6  1  0  0  0  0
 16  8  2  0  0  0  0
 17  9  1  0  0  0  0
 18  7  2  0  0  0  0
 19  7  1  0  0  0  0
 20 12  2  0  0  0  0
 21 18  1  0  0  0  0
 22 19  2  0  0  0  0
 23 17  2  0  0  0  0
 24  8  1  0  0  0  0
 25 11  1  0  0  0  0
 26 14  1  0  0  0  0
 27 24  1  0  0  0  0
  4  3  1  0  0  0  0
 13 21  2  0  0  0  0
 14 11  2  0  0  0  0
M  END
> <#>
1362

> <PLATE>
LAT018

> <ROW>
B

> <COL>
2

> <COORD>
B02

> <LATID>
LAT018B02

> <Supplier>
Chembridge

> <Suplier_CAT#>
7777402

> <Name>
Novel

> <Concentration_(mM)>
2.5

> <IC50_(µM)>
inactive

> <Yeast_Active?>
-

> <Pubchem_CID>
2028120

$$$$
