
  -ISIS-  08130814242D

 23 25  0  0  0  0  0  0  0  0999 V2000
   -3.1458    2.0958    0.0000 C   0  0  0  0  0  0  0  0  0  0  0  0
   -3.7833    2.0958    0.0000 N   0  0  3  0  0  0  0  0  0  0  0  0
   -2.9458    2.6958    0.0000 N   0  0  0  0  0  0  0  0  0  0  0  0
   -3.4625    3.0708    0.0000 N   0  0  0  0  0  0  0  0  0  0  0  0
   -3.9833    2.6958    0.0000 C   0  0  0  0  0  0  0  0  0  0  0  0
   -2.8208    1.5333    0.0000 N   0  0  0  0  0  0  0  0  0  0  0  0
   -2.1625    1.5333    0.0000 N   0  0  0  0  0  0  0  0  0  0  0  0
   -4.1833    1.5708    0.0000 N   0  0  0  0  0  0  0  0  0  0  0  0
   -1.8458    0.9708    0.0000 C   0  0  0  0  0  0  0  0  0  0  0  0
    0.7542    0.9708    0.0000 O   0  0  0  0  0  0  0  0  0  0  0  0
    0.1000    0.9708    0.0000 C   0  0  0  0  0  0  0  0  0  0  0  0
   -1.2000    0.9708    0.0000 C   0  0  0  0  0  0  0  0  0  0  0  0
    1.0792    1.5333    0.0000 C   0  0  0  0  0  0  0  0  0  0  0  0
   -0.2208    1.5333    0.0000 C   0  0  0  0  0  0  0  0  0  0  0  0
   -0.2208    0.4125    0.0000 C   0  0  0  0  0  0  0  0  0  0  0  0
   -0.8833    1.5333    0.0000 C   0  0  0  0  0  0  0  0  0  0  0  0
   -0.8625    0.4125    0.0000 C   0  0  0  0  0  0  0  0  0  0  0  0
    1.7167    1.5333    0.0000 C   0  0  0  0  0  0  0  0  0  0  0  0
    2.0542    2.0958    0.0000 C   0  0  0  0  0  0  0  0  0  0  0  0
    2.0375    0.9708    0.0000 C   0  0  0  0  0  0  0  0  0  0  0  0
    2.7000    0.9708    0.0000 C   0  0  0  0  0  0  0  0  0  0  0  0
    2.7000    2.0958    0.0000 C   0  0  0  0  0  0  0  0  0  0  0  0
    3.0167    1.5333    0.0000 C   0  0  0  0  0  0  0  0  0  0  0  0
  2  1  1  0  0  0  0
  3  1  2  0  0  0  0
  4  3  1  0  0  0  0
  5  2  1  0  0  0  0
  6  1  1  0  0  0  0
  7  6  1  0  0  0  0
  8  2  1  0  0  0  0
  9  7  2  0  0  0  0
 10 11  1  0  0  0  0
 11 15  1  0  0  0  0
 12  9  1  0  0  0  0
 13 10  1  0  0  0  0
 14 16  1  0  0  0  0
 15 17  2  0  0  0  0
 16 12  2  0  0  0  0
 17 12  1  0  0  0  0
 18 13  1  0  0  0  0
 19 18  2  0  0  0  0
 20 18  1  0  0  0  0
 21 20  2  0  0  0  0
 22 19  1  0  0  0  0
 23 21  1  0  0  0  0
  5  4  2  0  0  0  0
 11 14  2  0  0  0  0
 22 23  2  0  0  0  0
M  END
> <#>
1769

> <PLATE>
LAT023

> <ROW>
A

> <COL>
3

> <COORD>
A03

> <LATID>
LAT023A03

> <Supplier>
Chembridge

> <Suplier_CAT#>
5524714

> <Name>
Novel

> <Sec_Name>
149_F08

> <Concentration_(mM)>
2.5

> <IC50_(µM)>
35

> <Yeast_Active?>
-

> <Pubchem_CID>
3713053

$$$$
