
  -ISIS-  08130814242D

 26 28  0  0  0  0  0  0  0  0999 V2000
    2.3167   -1.2000    0.0000 C   0  0  0  0  0  0  0  0  0  0  0  0
    2.3167   -1.9500    0.0000 C   0  0  0  0  0  0  0  0  0  0  0  0
    2.9667   -0.8167    0.0000 N   0  0  0  0  0  0  0  0  0  0  0  0
    1.6667   -2.3167    0.0000 N   0  0  0  0  0  0  0  0  0  0  0  0
    1.6667   -0.8167    0.0000 O   0  0  0  0  0  0  0  0  0  0  0  0
    0.3667   -3.0667    0.0000 N   0  0  0  0  0  0  0  0  0  0  0  0
    2.9667   -2.3167    0.0000 O   0  0  0  0  0  0  0  0  0  0  0  0
    5.5667   -2.3167    0.0000 O   0  0  0  0  0  0  0  0  0  0  0  0
    3.6167   -1.2000    0.0000 C   0  0  0  0  0  0  0  0  0  0  0  0
    1.0167   -1.9500    0.0000 C   0  0  0  0  0  0  0  0  0  0  0  0
    0.3667   -2.3167    0.0000 C   0  0  0  0  0  0  0  0  0  0  0  0
    4.9167   -1.9500    0.0000 C   0  0  0  0  0  0  0  0  0  0  0  0
    6.2167   -1.9500    0.0000 C   0  0  0  0  0  0  0  0  0  0  0  0
    4.2667   -0.8167    0.0000 C   0  0  0  0  0  0  0  0  0  0  0  0
    3.6167   -1.9500    0.0000 C   0  0  0  0  0  0  0  0  0  0  0  0
    4.2667   -2.3167    0.0000 C   0  0  0  0  0  0  0  0  0  0  0  0
    4.9167   -1.2000    0.0000 C   0  0  0  0  0  0  0  0  0  0  0  0
   -0.2708   -3.4500    0.0000 C   0  0  0  0  0  0  0  0  0  0  0  0
   -0.2708   -1.9500    0.0000 C   0  0  0  0  0  0  0  0  0  0  0  0
    6.2167   -1.2000    0.0000 C   0  0  0  0  0  0  0  0  0  0  0  0
    6.8667   -2.3167    0.0000 C   0  0  0  0  0  0  0  0  0  0  0  0
   -0.9125   -3.0667    0.0000 C   0  0  0  0  0  0  0  0  0  0  0  0
   -0.9125   -2.3167    0.0000 C   0  0  0  0  0  0  0  0  0  0  0  0
    7.5167   -1.9500    0.0000 C   0  0  0  0  0  0  0  0  0  0  0  0
    6.8667   -0.8167    0.0000 C   0  0  0  0  0  0  0  0  0  0  0  0
    7.5167   -1.2000    0.0000 C   0  0  0  0  0  0  0  0  0  0  0  0
  2  1  1  0  0  0  0
  3  1  1  0  0  0  0
  4  2  1  0  0  0  0
  5  1  2  0  0  0  0
  6 11  2  0  0  0  0
  7  2  2  0  0  0  0
  8 12  1  0  0  0  0
  9  3  1  0  0  0  0
 10  4  1  0  0  0  0
 11 10  1  0  0  0  0
 12 16  1  0  0  0  0
 13  8  1  0  0  0  0
 14  9  2  0  0  0  0
 15  9  1  0  0  0  0
 16 15  2  0  0  0  0
 17 14  1  0  0  0  0
 18  6  1  0  0  0  0
 19 11  1  0  0  0  0
 20 13  2  0  0  0  0
 21 13  1  0  0  0  0
 22 23  1  0  0  0  0
 23 19  2  0  0  0  0
 24 21  2  0  0  0  0
 25 20  1  0  0  0  0
 26 24  1  0  0  0  0
 17 12  2  0  0  0  0
 18 22  2  0  0  0  0
 25 26  2  0  0  0  0
M  END
> <#>
1409

> <PLATE>
LAT018

> <ROW>
A

> <COL>
8

> <COORD>
A08

> <LATID>
LAT018A08

> <Supplier>
Chembridge

> <Suplier_CAT#>
5727023

> <Name>
Novel

> <Concentration_(mM)>
2.5

> <IC50_(µM)>
>100

> <Yeast_Active?>
-

> <Pubchem_CID>
NULL

$$$$
