
  -ISIS-  08130814242D

 31 34  0  0  0  0  0  0  0  0999 V2000
    3.1042   -3.4667    0.0000 N   0  0  3  0  0  0  0  0  0  0  0  0
    2.9375   -2.6625    0.0000 C   0  0  0  0  0  0  0  0  0  0  0  0
    3.6542   -2.2500    0.0000 N   0  0  0  0  0  0  0  0  0  0  0  0
    3.9292   -3.5542    0.0000 C   0  0  0  0  0  0  0  0  0  0  0  0
    4.2667   -2.8042    0.0000 N   0  0  0  0  0  0  0  0  0  0  0  0
    2.5542   -4.0792    0.0000 C   0  0  0  0  0  0  0  0  0  0  0  0
    4.3417   -4.2667    0.0000 S   0  0  0  0  0  0  0  0  0  0  0  0
    5.5792   -4.9750    0.0000 C   0  0  0  0  0  0  0  0  0  0  0  0
    2.1792   -2.3292    0.0000 C   0  0  0  0  0  0  0  0  0  0  0  0
    6.4042   -4.9750    0.0000 N   0  0  0  0  0  0  0  0  0  0  0  0
    5.1667   -5.6875    0.0000 O   0  0  0  0  0  0  0  0  0  0  0  0
    2.8167   -4.8625    0.0000 C   0  0  0  0  0  0  0  0  0  0  0  0
    1.7542   -3.9042    0.0000 C   0  0  0  0  0  0  0  0  0  0  0  0
    5.1667   -4.2667    0.0000 C   0  0  0  0  0  0  0  0  0  0  0  0
    6.8125   -5.6792    0.0000 C   0  0  0  0  0  0  0  0  0  0  0  0
    1.4542   -5.3042    0.0000 C   0  0  0  0  0  0  0  0  0  0  0  0
    1.2000   -4.5167    0.0000 C   0  0  0  0  0  0  0  0  0  0  0  0
    2.2667   -5.4792    0.0000 C   0  0  0  0  0  0  0  0  0  0  0  0
    7.6250   -5.6750    0.0000 C   0  0  0  0  0  0  0  0  0  0  0  0
    0.9042   -5.9167    0.0000 O   0  0  0  0  0  0  0  0  0  0  0  0
    1.5167   -2.8167    0.0000 C   0  0  0  0  0  0  0  0  0  0  0  0
    2.1000   -1.5042    0.0000 C   0  0  0  0  0  0  0  0  0  0  0  0
    8.0292   -6.3792    0.0000 C   0  0  0  0  0  0  0  0  0  0  0  0
    8.0292   -4.9792    0.0000 C   0  0  0  0  0  0  0  0  0  0  0  0
    1.1625   -6.7042    0.0000 C   0  0  0  0  0  0  0  0  0  0  0  0
    0.7667   -2.4792    0.0000 C   0  0  0  0  0  0  0  0  0  0  0  0
    1.3417   -1.1750    0.0000 C   0  0  0  0  0  0  0  0  0  0  0  0
    8.8417   -4.9792    0.0000 C   0  0  0  0  0  0  0  0  0  0  0  0
    8.8375   -6.3875    0.0000 C   0  0  0  0  0  0  0  0  0  0  0  0
    0.6792   -1.6542    0.0000 C   0  0  0  0  0  0  0  0  0  0  0  0
    9.2417   -5.6792    0.0000 C   0  0  0  0  0  0  0  0  0  0  0  0
  2  1  1  0  0  0  0
  3  2  2  0  0  0  0
  4  1  1  0  0  0  0
  5  4  2  0  0  0  0
  6  1  1  0  0  0  0
  7  4  1  0  0  0  0
  8 14  1  0  0  0  0
  9  2  1  0  0  0  0
 10  8  1  0  0  0  0
 11  8  2  0  0  0  0
 12  6  1  0  0  0  0
 13  6  2  0  0  0  0
 14  7  1  0  0  0  0
 15 10  1  0  0  0  0
 16 17  2  0  0  0  0
 17 13  1  0  0  0  0
 18 12  2  0  0  0  0
 19 15  1  0  0  0  0
 20 16  1  0  0  0  0
 21  9  1  0  0  0  0
 22  9  2  0  0  0  0
 23 19  2  0  0  0  0
 24 19  1  0  0  0  0
 25 20  1  0  0  0  0
 26 21  2  0  0  0  0
 27 22  1  0  0  0  0
 28 24  2  0  0  0  0
 29 23  1  0  0  0  0
 30 27  2  0  0  0  0
 31 28  1  0  0  0  0
  5  3  1  0  0  0  0
 18 16  1  0  0  0  0
 30 26  1  0  0  0  0
 31 29  2  0  0  0  0
M  END
> <#>
1733

> <PLATE>
LAT022

> <ROW>
E

> <COL>
8

> <COORD>
E08

> <LATID>
LAT022E08

> <Supplier>
Chembridge

> <Suplier_CAT#>
7593403

> <Name>
Novel

> <Concentration_(mM)>
2.5

> <IC50_(µM)>
inactive

> <Yeast_Active?>
-

> <Pubchem_CID>
1314245

$$$$
