
  -ISIS-  08130814242D

 33 36  0  0  0  0  0  0  0  0999 V2000
    0.9000    1.0333    0.0000 C   0  0  0  0  0  0  0  0  0  0  0  0
   -0.1000    1.6208    0.0000 C   0  0  0  0  0  0  0  0  0  0  0  0
    0.5667    1.6208    0.0000 C   0  0  3  0  0  0  0  0  0  0  0  0
   -0.4458    1.0333    0.0000 C   0  0  0  0  0  0  0  0  0  0  0  0
    0.5667    0.4458    0.0000 C   0  0  0  0  0  0  0  0  0  0  0  0
   -0.1000    0.4458    0.0000 N   0  0  0  0  0  0  0  0  0  0  0  0
   -0.4458    2.1958    0.0000 C   0  0  0  0  0  0  0  0  0  0  0  0
    1.1542    2.6333    0.0000 C   0  0  0  0  0  0  0  0  0  0  0  0
    1.5792    1.0333    0.0000 C   0  0  0  0  0  0  0  0  0  0  0  0
    0.8375    3.2208    0.0000 C   0  0  0  0  0  0  0  0  0  0  0  0
   -1.1000    1.0333    0.0000 C   0  0  0  0  0  0  0  0  0  0  0  0
   -1.4500    1.6208    0.0000 C   0  0  3  0  0  0  0  0  0  0  0  0
   -1.1000    2.1958    0.0000 C   0  0  0  0  0  0  0  0  0  0  0  0
   -2.1208    1.6208    0.0000 C   0  0  0  0  0  0  0  0  0  0  0  0
   -0.1208    2.7708    0.0000 O   0  0  0  0  0  0  0  0  0  0  0  0
    1.1542    3.7833    0.0000 C   0  0  0  0  0  0  0  0  0  0  0  0
    1.9042    1.6208    0.0000 O   0  0  0  0  0  0  0  0  0  0  0  0
   -2.4625    1.0333    0.0000 C   0  0  0  0  0  0  0  0  0  0  0  0
   -2.4625    2.1958    0.0000 C   0  0  0  0  0  0  0  0  0  0  0  0
    0.1542    3.2333    0.0000 O   0  0  0  0  0  0  0  0  0  0  0  0
    1.9042    0.4125    0.0000 O   0  0  0  0  0  0  0  0  0  0  0  0
   -3.4708    1.6208    0.0000 C   0  0  0  0  0  0  0  0  0  0  0  0
    1.8375    2.6333    0.0000 C   0  0  0  0  0  0  0  0  0  0  0  0
    0.9167   -0.1375    0.0000 C   0  0  0  0  0  0  0  0  0  0  0  0
   -3.1333    1.0333    0.0000 C   0  0  0  0  0  0  0  0  0  0  0  0
   -3.1333    2.1958    0.0000 C   0  0  0  0  0  0  0  0  0  0  0  0
   -4.1583    1.6333    0.0000 Cl  0  0  0  0  0  0  0  0  0  0  0  0
    0.8000    4.3417    0.0000 O   0  0  0  0  0  0  0  0  0  0  0  0
    2.1542    3.2208    0.0000 C   0  0  0  0  0  0  0  0  0  0  0  0
    1.8375    3.7833    0.0000 C   0  0  0  0  0  0  0  0  0  0  0  0
   -0.1500    3.8208    0.0000 C   0  0  0  0  0  0  0  0  0  0  0  0
    2.5792    0.4125    0.0000 C   0  0  0  0  0  0  0  0  0  0  0  0
    1.1042    4.9500    0.0000 C   0  0  0  0  0  0  0  0  0  0  0  0
  2  3  1  0  0  0  0
  3  1  1  0  0  0  0
  4  6  1  0  0  0  0
  5  1  2  0  0  0  0
  6  5  1  0  0  0  0
  7  2  1  0  0  0  0
  8  3  1  0  0  0  0
  9  1  1  0  0  0  0
 10  8  1  0  0  0  0
 11  4  1  0  0  0  0
 12 11  1  0  0  0  0
 13  7  1  0  0  0  0
 14 12  1  0  0  0  0
 15  7  2  0  0  0  0
 16 10  2  0  0  0  0
 17  9  2  0  0  0  0
 18 14  1  0  0  0  0
 19 14  2  0  0  0  0
 20 10  1  0  0  0  0
 21  9  1  0  0  0  0
 22 26  2  0  0  0  0
 23  8  2  0  0  0  0
 24  5  1  0  0  0  0
 25 18  2  0  0  0  0
 26 19  1  0  0  0  0
 27 22  1  0  0  0  0
 28 16  1  0  0  0  0
 29 23  1  0  0  0  0
 30 29  2  0  0  0  0
 31 20  1  0  0  0  0
 32 21  1  0  0  0  0
 33 28  1  0  0  0  0
  2  4  2  0  0  0  0
 13 12  1  0  0  0  0
 16 30  1  0  0  0  0
 25 22  1  0  0  0  0
M  END
> <#>
1034

> <PLATE>
LAT013

> <ROW>
B

> <COL>
11

> <COORD>
B11

> <LATID>
LAT013B11

> <Supplier>
Chembridge

> <Suplier_CAT#>
5717972

> <Name>
Novel

> <Sec_Name>
226_A09

> <Concentration_(mM)>
2.5

> <IC50_(µM)>
21

> <Yeast_Active?>
-

> <Pubchem_CID>
1037307

$$$$
