
  -ISIS-  08130814242D

 29 30  0  0  0  0  0  0  0  0999 V2000
    0.0375    0.3500    0.0000 C   0  0  0  0  0  0  0  0  0  0  0  0
   -0.3625    0.9125    0.0000 N   0  0  0  0  0  0  0  0  0  0  0  0
    2.0792   -2.0500    0.0000 C   0  0  0  0  0  0  0  0  0  0  0  0
    3.1000   -1.4500    0.0000 C   0  0  0  0  0  0  0  0  0  0  0  0
    2.7542   -2.0667    0.0000 C   0  0  0  0  0  0  0  0  0  0  0  0
   -0.3625   -0.2042    0.0000 N   0  0  0  0  0  0  0  0  0  0  0  0
    2.0792   -0.8667    0.0000 C   0  0  0  0  0  0  0  0  0  0  0  0
    2.7542   -0.8667    0.0000 C   0  0  0  0  0  0  0  0  0  0  0  0
    1.7375   -1.4500    0.0000 C   0  0  0  0  0  0  0  0  0  0  0  0
   -1.0208    0.6958    0.0000 C   0  0  0  0  0  0  0  0  0  0  0  0
   -1.0208    0.0125    0.0000 C   0  0  0  0  0  0  0  0  0  0  0  0
    1.7375   -0.2667    0.0000 C   0  0  0  0  0  0  0  0  0  0  0  0
    3.8000   -1.4292    0.0000 C   0  0  3  0  0  0  0  0  0  0  0  0
    1.7375   -2.6500    0.0000 C   0  0  3  0  0  0  0  0  0  0  0  0
    0.7167    0.3333    0.0000 S   0  0  0  0  0  0  0  0  0  0  0  0
    1.0542   -0.2667    0.0000 C   0  0  0  0  0  0  0  0  0  0  0  0
    2.0792    0.3333    0.0000 O   0  0  0  0  0  0  0  0  0  0  0  0
    3.1000   -2.6667    0.0000 O   0  0  0  0  0  0  0  0  0  0  0  0
   -1.6000    1.0333    0.0000 C   0  0  0  0  0  0  0  0  0  0  0  0
   -1.6000   -0.3500    0.0000 C   0  0  0  0  0  0  0  0  0  0  0  0
    4.4792   -1.4042    0.0000 C   0  0  0  0  0  0  0  0  0  0  0  0
    3.7792   -0.7500    0.0000 C   0  0  0  0  0  0  0  0  0  0  0  0
    1.4000   -3.2500    0.0000 C   0  0  0  0  0  0  0  0  0  0  0  0
    1.1375   -2.3042    0.0000 C   0  0  0  0  0  0  0  0  0  0  0  0
    2.3375   -2.9875    0.0000 C   0  0  0  0  0  0  0  0  0  0  0  0
    3.8167   -2.1292    0.0000 C   0  0  0  0  0  0  0  0  0  0  0  0
   -2.2000    0.6958    0.0000 C   0  0  0  0  0  0  0  0  0  0  0  0
   -2.2000    0.0125    0.0000 C   0  0  0  0  0  0  0  0  0  0  0  0
   -1.8208   -1.9500    0.0000 Br  0  0  0  0  0  0  0  0  0  0  0  0
  2  1  2  0  0  0  0
  3  9  2  0  0  0  0
  4  8  1  0  0  0  0
  5  3  1  0  0  0  0
  6  1  1  0  0  0  0
  7 12  1  0  0  0  0
  8  7  2  0  0  0  0
  9  7  1  0  0  0  0
 10  2  1  0  0  0  0
 11  6  1  0  0  0  0
 12 16  1  0  0  0  0
 13  4  1  0  0  0  0
 14  3  1  0  0  0  0
 15  1  1  0  0  0  0
 16 15  1  0  0  0  0
 17 12  2  0  0  0  0
 18  5  1  0  0  0  0
 19 10  1  0  0  0  0
 20 11  1  0  0  0  0
 21 13  1  0  0  0  0
 22 13  1  0  0  0  0
 23 14  1  0  0  0  0
 24 14  1  0  0  0  0
 25 14  1  0  0  0  0
 26 13  1  0  0  0  0
 27 19  2  0  0  0  0
 28 20  2  0  0  0  0
 11 10  2  0  0  0  0
 28 27  1  0  0  0  0
  4  5  2  0  0  0  0
M  END
> <#>
1150

> <PLATE>
LAT015

> <ROW>
F

> <COL>
5

> <COORD>
F05

> <LATID>
LAT015F05

> <Supplier>
Chembridge

> <Suplier_CAT#>
5545885

> <Name>
Novel

> <Concentration_(mM)>
2.5

> <IC50_(µM)>
>100

> <Yeast_Active?>
-

> <Pubchem_CID>
NULL

$$$$
