
  -ISIS-  08130814242D

 23 24  0  0  0  0  0  0  0  0999 V2000
   -1.2181   -1.0625    0.0000 C   0  0  0  0  0  0  0  0  0  0  0  0
   -1.2193   -1.8898    0.0000 C   0  0  0  0  0  0  0  0  0  0  0  0
   -0.5044   -2.3027    0.0000 C   0  0  0  0  0  0  0  0  0  0  0  0
    0.2120   -1.8894    0.0000 C   0  0  0  0  0  0  0  0  0  0  0  0
    0.2091   -1.0588    0.0000 C   0  0  0  0  0  0  0  0  0  0  0  0
   -0.5062   -0.6497    0.0000 C   0  0  0  0  0  0  0  0  0  0  0  0
    0.9208   -0.6417    0.0000 C   0  0  0  0  0  0  0  0  0  0  0  0
    1.6333   -1.0542    0.0000 C   0  0  0  0  0  0  0  0  0  0  0  0
    1.6296   -1.8785    0.0000 C   0  0  0  0  0  0  0  0  0  0  0  0
    2.3412   -2.2910    0.0000 C   0  0  0  0  0  0  0  0  0  0  0  0
    3.0557   -1.8801    0.0000 C   0  0  0  0  0  0  0  0  0  0  0  0
    3.0540   -1.0525    0.0000 C   0  0  0  0  0  0  0  0  0  0  0  0
    2.3418   -0.6439    0.0000 C   0  0  0  0  0  0  0  0  0  0  0  0
    2.3375    0.1833    0.0000 C   0  0  0  0  0  0  0  0  0  0  0  0
    1.6208    0.5958    0.0000 O   0  0  0  0  0  0  0  0  0  0  0  0
    3.0500    0.6000    0.0000 O   0  0  0  0  0  0  0  0  0  0  0  0
    0.9167    0.1833    0.0000 O   0  0  0  0  0  0  0  0  0  0  0  0
   -0.5125    0.1792    0.0000 O   0  0  0  0  0  0  0  0  0  0  0  0
   -1.9375   -2.2958    0.0000 N   0  0  3  0  0  0  0  0  0  0  0  0
   -2.5250   -1.7083    0.0000 C   0  0  0  0  0  0  0  0  0  0  0  0
   -3.2417   -2.1167    0.0000 C   0  0  0  0  0  0  0  0  0  0  0  0
   -1.9417   -3.1208    0.0000 C   0  0  0  0  0  0  0  0  0  0  0  0
   -2.6583   -3.5292    0.0000 C   0  0  0  0  0  0  0  0  0  0  0  0
  5  6  2  0  0  0  0
 11 12  1  0  0  0  0
  6  1  1  0  0  0  0
 12 13  2  0  0  0  0
 13  8  1  0  0  0  0
  1  2  2  0  0  0  0
 13 14  1  0  0  0  0
  5  7  1  0  0  0  0
 14 15  2  0  0  0  0
  3  4  2  0  0  0  0
 14 16  1  0  0  0  0
  7  8  1  0  0  0  0
  7 17  2  0  0  0  0
  6 18  1  0  0  0  0
  8  9  2  0  0  0  0
  2 19  1  0  0  0  0
  4  5  1  0  0  0  0
 19 20  1  0  0  0  0
  9 10  1  0  0  0  0
 20 21  1  0  0  0  0
  2  3  1  0  0  0  0
 19 22  1  0  0  0  0
 10 11  2  0  0  0  0
 22 23  1  0  0  0  0
M  END
> <#>
1957

> <PLATE>
LAT025

> <ROW>
E

> <COL>
6

> <COORD>
E06

> <LATID>
LAT025E06

> <Supplier>
Chembridge

> <Suplier_CAT#>
5472223

> <Name>
Novel

> <Sec_Name>
135_E04

> <Concentration_(mM)>
2.5

> <IC50_(µM)>
inactive

> <Yeast_Active?>
-

> <Pubchem_CID>
79878

$$$$
