
  -ISIS-  08130814242D

 16 17  0  0  0  0  0  0  0  0999 V2000
    2.7750    1.1375    0.0000 N   0  0  3  0  0  0  0  0  0  0  0  0
    2.0292    1.2208    0.0000 C   0  0  0  0  0  0  0  0  0  0  0  0
    1.7250    0.5333    0.0000 N   0  0  0  0  0  0  0  0  0  0  0  0
    2.9292    0.4083    0.0000 C   0  0  0  0  0  0  0  0  0  0  0  0
    2.2792    0.0333    0.0000 N   0  0  0  0  0  0  0  0  0  0  0  0
    1.6542    1.8708    0.0000 C   0  0  0  0  0  0  0  0  0  0  0  0
    3.6167    0.1000    0.0000 S   0  0  0  0  0  0  0  0  0  0  0  0
    1.6542    3.1708    0.0000 N   0  0  0  0  0  0  0  0  0  0  0  0
    3.2792    1.6958    0.0000 C   0  0  0  0  0  0  0  0  0  0  0  0
    2.0292    2.5208    0.0000 C   0  0  0  0  0  0  0  0  0  0  0  0
    0.9042    1.8708    0.0000 C   0  0  0  0  0  0  0  0  0  0  0  0
    0.9042    3.1708    0.0000 C   0  0  0  0  0  0  0  0  0  0  0  0
    4.0125    1.5375    0.0000 C   0  0  0  0  0  0  0  0  0  0  0  0
    0.5292    2.5208    0.0000 C   0  0  0  0  0  0  0  0  0  0  0  0
    4.5125    2.0958    0.0000 C   0  0  0  0  0  0  0  0  0  0  0  0
    5.2500    1.9458    0.0000 C   0  0  0  0  0  0  0  0  0  0  0  0
  2  1  1  0  0  0  0
  3  2  2  0  0  0  0
  4  1  1  0  0  0  0
  5  4  1  0  0  0  0
  6  2  1  0  0  0  0
  7  4  2  0  0  0  0
  8 10  2  0  0  0  0
  9  1  1  0  0  0  0
 10  6  1  0  0  0  0
 11  6  2  0  0  0  0
 12 14  2  0  0  0  0
 13  9  1  0  0  0  0
 14 11  1  0  0  0  0
 15 13  1  0  0  0  0
 16 15  1  0  0  0  0
  5  3  1  0  0  0  0
  8 12  1  0  0  0  0
M  END
> <#>
1688

> <PLATE>
LAT022

> <ROW>
H

> <COL>
2

> <COORD>
H02

> <LATID>
LAT022H02

> <Supplier>
Chembridge

> <Suplier_CAT#>
7915355

> <Name>
Novel

> <Concentration_(mM)>
2.5

> <IC50_(µM)>
>100

> <Yeast_Active?>
-

> <Pubchem_CID>
2219373

$$$$
