
  -ISIS-  08130814242D

 22 23  0  0  0  0  0  0  0  0999 V2000
   -2.2833    0.4125    0.0000 C   0  0  0  0  0  0  0  0  0  0  0  0
   -1.5458    0.8333    0.0000 C   0  0  0  0  0  0  0  0  0  0  0  0
   -0.1000    0.8333    0.0000 N   0  0  0  0  0  0  0  0  0  0  0  0
   -1.5625   -0.8667    0.0000 N   0  0  0  0  0  0  0  0  0  0  0  0
   -2.2833   -0.4500    0.0000 N   0  0  0  0  0  0  0  0  0  0  0  0
   -0.8208    0.4125    0.0000 N   0  0  0  0  0  0  0  0  0  0  0  0
   -1.5458    1.6708    0.0000 O   0  0  0  0  0  0  0  0  0  0  0  0
   -3.0000    0.8333    0.0000 O   0  0  0  0  0  0  0  0  0  0  0  0
    2.8375    0.8125    0.0000 N   0  0  0  0  0  0  0  0  0  0  0  0
    0.6167   -2.1292    0.0000 N   0  0  0  0  0  0  0  0  0  0  0  0
    0.6375    0.3958    0.0000 C   0  0  0  0  0  0  0  0  0  0  0  0
   -1.5625   -1.7042    0.0000 C   0  0  0  0  0  0  0  0  0  0  0  0
    1.3792    0.8125    0.0000 C   0  0  0  0  0  0  0  0  0  0  0  0
   -0.8458   -2.1292    0.0000 C   0  0  0  0  0  0  0  0  0  0  0  0
   -0.1208   -1.7042    0.0000 C   0  0  0  0  0  0  0  0  0  0  0  0
    2.1167    0.3958    0.0000 C   0  0  0  0  0  0  0  0  0  0  0  0
    2.8375    1.6500    0.0000 C   0  0  0  0  0  0  0  0  0  0  0  0
    0.6000   -2.9667    0.0000 C   0  0  0  0  0  0  0  0  0  0  0  0
    1.3792    1.6500    0.0000 C   0  0  0  0  0  0  0  0  0  0  0  0
   -0.8625   -2.9667    0.0000 C   0  0  0  0  0  0  0  0  0  0  0  0
    2.1167    2.0708    0.0000 C   0  0  0  0  0  0  0  0  0  0  0  0
   -0.1458   -3.3875    0.0000 C   0  0  0  0  0  0  0  0  0  0  0  0
  2  1  1  0  0  0  0
  3  6  1  0  0  0  0
  4  5  1  0  0  0  0
  5  1  1  0  0  0  0
  6  2  1  0  0  0  0
  7  2  2  0  0  0  0
  8  1  2  0  0  0  0
  9 16  2  0  0  0  0
 10 15  1  0  0  0  0
 11  3  2  0  0  0  0
 12  4  2  0  0  0  0
 13 11  1  0  0  0  0
 14 12  1  0  0  0  0
 15 14  2  0  0  0  0
 16 13  1  0  0  0  0
 17 21  2  0  0  0  0
 18 22  1  0  0  0  0
 19 13  2  0  0  0  0
 20 14  1  0  0  0  0
 21 19  1  0  0  0  0
 22 20  2  0  0  0  0
 18 10  2  0  0  0  0
  9 17  1  0  0  0  0
M  END
> <#>
1606

> <PLATE>
LAT021

> <ROW>
F

> <COL>
2

> <COORD>
F02

> <LATID>
LAT021F02

> <Supplier>
Chembridge

> <Suplier_CAT#>
5336962

> <Name>
Novel

> <Concentration_(mM)>
2.5

> <IC50_(µM)>
inactive

> <Yeast_Active?>
-

> <Pubchem_CID>
2218301

$$$$
