
  -ISIS-  08130814242D

 29 31  0  0  0  0  0  0  0  0999 V2000
    2.6917    1.1708    0.0000 S   0  0  3  0  0  0  0  0  0  0  0  0
    2.0417    1.5458    0.0000 C   0  0  0  0  0  0  0  0  0  0  0  0
    3.2250    1.7000    0.0000 N   0  0  3  0  0  0  0  0  0  0  0  0
    4.8167    3.2958    0.0000 C   0  0  0  0  0  0  0  0  0  0  0  0
    2.0417    2.2958    0.0000 C   0  0  0  0  0  0  0  0  0  0  0  0
    2.2542    0.5583    0.0000 O   0  0  0  0  0  0  0  0  0  0  0  0
    3.2667    0.6875    0.0000 O   0  0  0  0  0  0  0  0  0  0  0  0
    1.3917    1.1708    0.0000 C   0  0  0  0  0  0  0  0  0  0  0  0
    5.5375    3.1083    0.0000 N   0  0  0  0  0  0  0  0  0  0  0  0
    3.9500    1.5083    0.0000 C   0  0  0  0  0  0  0  0  0  0  0  0
    3.0292    2.4250    0.0000 C   0  0  0  0  0  0  0  0  0  0  0  0
    4.2792    2.7708    0.0000 C   0  0  3  0  0  0  0  0  0  0  0  0
    6.9875    2.7083    0.0000 N   0  0  0  0  0  0  0  0  0  0  0  0
    4.6167    4.0125    0.0000 O   0  0  0  0  0  0  0  0  0  0  0  0
    3.5542    2.9583    0.0000 C   0  0  0  0  0  0  0  0  0  0  0  0
    4.4792    2.0375    0.0000 C   0  0  0  0  0  0  0  0  0  0  0  0
    0.7417    1.5458    0.0000 C   0  0  0  0  0  0  0  0  0  0  0  0
    1.3917    2.6708    0.0000 C   0  0  0  0  0  0  0  0  0  0  0  0
    6.0667    3.6333    0.0000 C   0  0  0  0  0  0  0  0  0  0  0  0
    6.7917    3.4333    0.0000 C   0  0  0  0  0  0  0  0  0  0  0  0
    0.7417    2.2958    0.0000 C   0  0  0  0  0  0  0  0  0  0  0  0
    1.3917    0.4208    0.0000 O   0  0  0  0  0  0  0  0  0  0  0  0
    1.3917    3.4208    0.0000 O   0  0  0  0  0  0  0  0  0  0  0  0
    7.7125    2.5208    0.0000 C   0  0  0  0  0  0  0  0  0  0  0  0
    7.3250    3.9708    0.0000 C   0  0  0  0  0  0  0  0  0  0  0  0
    0.7417    0.0458    0.0000 C   0  0  0  0  0  0  0  0  0  0  0  0
    0.7417    3.7958    0.0000 C   0  0  0  0  0  0  0  0  0  0  0  0
    8.2417    3.0458    0.0000 C   0  0  0  0  0  0  0  0  0  0  0  0
    8.0500    3.7708    0.0000 C   0  0  0  0  0  0  0  0  0  0  0  0
  2  1  1  0  0  0  0
  3  1  1  0  0  0  0
  4 12  1  0  0  0  0
  5  2  1  0  0  0  0
  6  1  2  0  0  0  0
  7  1  2  0  0  0  0
  8  2  2  0  0  0  0
  9  4  1  0  0  0  0
 10  3  1  0  0  0  0
 11  3  1  0  0  0  0
 12 15  1  0  0  0  0
 13 20  2  0  0  0  0
 14  4  2  0  0  0  0
 15 11  1  0  0  0  0
 16 10  1  0  0  0  0
 17  8  1  0  0  0  0
 18  5  2  0  0  0  0
 19  9  1  0  0  0  0
 20 19  1  0  0  0  0
 21 17  2  0  0  0  0
 22  8  1  0  0  0  0
 23 18  1  0  0  0  0
 24 13  1  0  0  0  0
 25 20  1  0  0  0  0
 26 22  1  0  0  0  0
 27 23  1  0  0  0  0
 28 29  1  0  0  0  0
 29 25  2  0  0  0  0
 16 12  1  0  0  0  0
 18 21  1  0  0  0  0
 28 24  2  0  0  0  0
M  END
> <#>
1522

> <PLATE>
LAT020

> <ROW>
B

> <COL>
2

> <COORD>
B02

> <LATID>
LAT020B02

> <Supplier>
Chembridge

> <Suplier_CAT#>
7913373

> <Name>
Novel

> <Concentration_(mM)>
2.5

> <IC50_(µM)>
inactive

> <Yeast_Active?>
-

> <Pubchem_CID>
1093348

$$$$
