
  -ISIS-  08130814242D

 23 25  0  0  0  0  0  0  0  0999 V2000
    6.6542   -2.3417    0.0000 N   0  0  3  0  0  0  0  0  0  0  0  0
    6.8750   -3.1417    0.0000 C   0  0  0  0  0  0  0  0  0  0  0  0
    7.3542   -1.8917    0.0000 C   0  0  0  0  0  0  0  0  0  0  0  0
    7.9917   -2.4167    0.0000 C   0  0  0  0  0  0  0  0  0  0  0  0
    7.7000   -3.1875    0.0000 C   0  0  0  0  0  0  0  0  0  0  0  0
    4.5042   -1.9292    0.0000 C   0  0  0  0  0  0  0  0  0  0  0  0
    5.9417   -1.9292    0.0000 C   0  0  0  0  0  0  0  0  0  0  0  0
    4.5042   -1.1000    0.0000 C   0  0  0  0  0  0  0  0  0  0  0  0
    5.2250   -2.3417    0.0000 C   0  0  0  0  0  0  0  0  0  0  0  0
    3.7875   -0.6792    0.0000 C   0  0  0  0  0  0  0  0  0  0  0  0
    3.7875   -2.3417    0.0000 C   0  0  0  0  0  0  0  0  0  0  0  0
    7.3500   -1.0625    0.0000 O   0  0  0  0  0  0  0  0  0  0  0  0
    6.4542   -3.8625    0.0000 O   0  0  0  0  0  0  0  0  0  0  0  0
    3.0667   -1.1000    0.0000 C   0  0  0  0  0  0  0  0  0  0  0  0
    5.2167   -3.1750    0.0000 O   0  0  0  0  0  0  0  0  0  0  0  0
    3.0667   -1.9292    0.0000 C   0  0  0  0  0  0  0  0  0  0  0  0
    5.2250   -0.6792    0.0000 O   0  0  0  0  0  0  0  0  0  0  0  0
    2.3500   -0.6792    0.0000 O   0  0  0  0  0  0  0  0  0  0  0  0
    8.2167   -3.8292    0.0000 C   0  0  0  0  0  0  0  0  0  0  0  0
    8.8042   -2.2875    0.0000 C   0  0  0  0  0  0  0  0  0  0  0  0
    3.7792    0.1458    0.0000 C   0  0  0  0  0  0  0  0  0  0  0  0
    9.0292   -3.7042    0.0000 C   0  0  0  0  0  0  0  0  0  0  0  0
    9.3292   -2.9250    0.0000 C   0  0  0  0  0  0  0  0  0  0  0  0
  2  1  1  0  0  0  0
  3  1  1  0  0  0  0
  4  3  1  0  0  0  0
  5  2  1  0  0  0  0
  6  9  1  0  0  0  0
  7  1  1  0  0  0  0
  8  6  1  0  0  0  0
  9  7  1  0  0  0  0
 10  8  2  0  0  0  0
 11  6  2  0  0  0  0
 12  3  2  0  0  0  0
 13  2  2  0  0  0  0
 14 16  2  0  0  0  0
 15  9  2  0  0  0  0
 16 11  1  0  0  0  0
 17  8  1  0  0  0  0
 18 14  1  0  0  0  0
 19  5  1  0  0  0  0
 20  4  1  0  0  0  0
 21 10  1  0  0  0  0
 22 19  2  0  0  0  0
 23 20  2  0  0  0  0
  5  4  2  0  0  0  0
 23 22  1  0  0  0  0
 14 10  1  0  0  0  0
M  END
> <#>
1384

> <PLATE>
LAT018

> <ROW>
H

> <COL>
4

> <COORD>
H04

> <LATID>
LAT018H04

> <Supplier>
Chembridge

> <Suplier_CAT#>
7786907

> <Name>
Novel

> <Concentration_(mM)>
2.5

> <IC50_(µM)>
>100

> <Yeast_Active?>
-

> <Pubchem_CID>
NULL

$$$$
