
  -ISIS-  08130814242D

 13 14  0  0  0  0  0  0  0  0999 V2000
   -0.5708    1.2125    0.0000 C   0  0  0  0  0  0  0  0  0  0  0  0
   -1.1500    2.0333    0.0000 N   0  0  0  0  0  0  0  0  0  0  0  0
   -1.1500    0.3958    0.0000 N   0  0  3  0  0  0  0  0  0  0  0  0
   -2.1125    1.7333    0.0000 C   0  0  0  0  0  0  0  0  0  0  0  0
   -2.1125    0.7125    0.0000 C   0  0  0  0  0  0  0  0  0  0  0  0
   -2.9958    0.1958    0.0000 C   0  0  0  0  0  0  0  0  0  0  0  0
   -2.9958    2.2333    0.0000 C   0  0  0  0  0  0  0  0  0  0  0  0
    0.4667    1.1958    0.0000 S   0  0  0  0  0  0  0  0  0  0  0  0
   -0.8125   -0.5667    0.0000 C   0  0  0  0  0  0  0  0  0  0  0  0
   -3.8958    0.7125    0.0000 C   0  0  0  0  0  0  0  0  0  0  0  0
   -3.8958    1.7333    0.0000 C   0  0  0  0  0  0  0  0  0  0  0  0
    0.9667    0.3125    0.0000 C   0  0  0  0  0  0  0  0  0  0  0  0
   -4.7958    2.2333    0.0000 C   0  0  0  0  0  0  0  0  0  0  0  0
  2  1  2  0  0  0  0
  3  1  1  0  0  0  0
  4  2  1  0  0  0  0
  5  3  1  0  0  0  0
  6  5  1  0  0  0  0
  7  4  1  0  0  0  0
  8  1  1  0  0  0  0
  9  3  1  0  0  0  0
 10  6  2  0  0  0  0
 11  7  2  0  0  0  0
 12  8  1  0  0  0  0
 13 11  1  0  0  0  0
  5  4  2  0  0  0  0
 10 11  1  0  0  0  0
M  END
> <#>
817

> <PLATE>
LAT011

> <ROW>
A

> <COL>
4

> <COORD>
A04

> <LATID>
LAT011A04

> <Supplier>
Chembridge

> <Suplier_CAT#>
5661001

> <Name>
Novel

> <Sec_Name>
206_D02

> <Concentration_(mM)>
2.5

> <IC50_(µM)>
27

> <Yeast_Active?>
-

> <Pubchem_CID>
867619

$$$$
