
  -ISIS-  08130814242D

 20 21  0  0  0  0  0  0  0  0999 V2000
    5.2167   -1.3042    0.0000 C   0  0  0  0  0  0  0  0  0  0  0  0
    3.9167   -1.3042    0.0000 N   0  0  0  0  0  0  0  0  0  0  0  0
    2.6167   -1.3000    0.0000 C   0  0  0  0  0  0  0  0  0  0  0  0
    5.8667   -0.9292    0.0000 C   0  0  0  0  0  0  0  0  0  0  0  0
    5.2167   -2.0542    0.0000 C   0  0  0  0  0  0  0  0  0  0  0  0
    3.2667   -0.9292    0.0000 N   0  0  0  0  0  0  0  0  0  0  0  0
    4.5667   -0.9292    0.0000 C   0  0  0  0  0  0  0  0  0  0  0  0
    2.6167   -2.0500    0.0000 O   0  0  0  0  0  0  0  0  0  0  0  0
    6.5167   -1.3042    0.0000 C   0  0  0  0  0  0  0  0  0  0  0  0
    1.9667   -0.9292    0.0000 C   0  0  0  0  0  0  0  0  0  0  0  0
    5.8667   -2.4292    0.0000 C   0  0  0  0  0  0  0  0  0  0  0  0
    6.5167   -2.0542    0.0000 C   0  0  0  0  0  0  0  0  0  0  0  0
    5.8667   -3.1792    0.0000 Cl  0  0  0  0  0  0  0  0  0  0  0  0
    5.8667   -0.1792    0.0000 O   0  0  0  0  0  0  0  0  0  0  0  0
    1.3167   -1.3000    0.0000 C   0  0  0  0  0  0  0  0  0  0  0  0
    1.3167   -2.0542    0.0000 C   0  0  0  0  0  0  0  0  0  0  0  0
    0.6667   -0.9167    0.0000 C   0  0  0  0  0  0  0  0  0  0  0  0
    0.6667   -2.4292    0.0000 C   0  0  0  0  0  0  0  0  0  0  0  0
    0.0167   -1.3000    0.0000 C   0  0  0  0  0  0  0  0  0  0  0  0
    0.0167   -2.0542    0.0000 C   0  0  0  0  0  0  0  0  0  0  0  0
  2  7  2  0  0  0  0
  3  6  1  0  0  0  0
  4  1  2  0  0  0  0
  5  1  1  0  0  0  0
  6  2  1  0  0  0  0
  7  1  1  0  0  0  0
  8  3  2  0  0  0  0
  9  4  1  0  0  0  0
 10  3  1  0  0  0  0
 11  5  2  0  0  0  0
 12 11  1  0  0  0  0
 13 11  1  0  0  0  0
 14  4  1  0  0  0  0
 15 10  1  0  0  0  0
 16 15  2  0  0  0  0
 17 15  1  0  0  0  0
 18 16  1  0  0  0  0
 19 17  2  0  0  0  0
 20 19  1  0  0  0  0
  9 12  2  0  0  0  0
 18 20  2  0  0  0  0
M  END
> <#>
1103

> <PLATE>
LAT014

> <ROW>
G

> <COL>
9

> <COORD>
G09

> <LATID>
LAT014G09

> <Supplier>
Chembridge

> <Suplier_CAT#>
5326153

> <Name>
Novel

> <Concentration_(mM)>
2.5

> <IC50_(µM)>
>100

> <Yeast_Active?>
-

> <Pubchem_CID>
NULL

$$$$
