
  -ISIS-  08130814242D

 10  8  0  0  0  0  0  0  0  0999 V2000
    2.7753    0.6646    0.0000 Na  0  3  0  0  0  0  0  0  0  0  0  0
   -2.6373    1.2896    0.0000 C   0  0  0  0  0  0  0  0  0  0  0  0
   -1.5548   -0.5854    0.0000 N   0  0  0  0  0  0  0  0  0  0  0  0
   -1.5548    0.6646    0.0000 C   0  0  1  0  0  0  0  0  0  0  0  0
   -0.4723    1.2896    0.0000 C   0  0  0  0  0  0  0  0  0  0  0  0
    0.6103    0.6646    0.0000 C   0  0  0  0  0  0  0  0  0  0  0  0
    0.6103   -0.5854    0.0000 O   0  0  0  0  0  0  0  0  0  0  0  0
    1.6928    1.2896    0.0000 O   0  5  0  0  0  0  0  0  0  0  0  0
   -2.6373    2.5396    0.0000 O   0  0  0  0  0  0  0  0  0  0  0  0
   -3.7199    0.6646    0.0000 O   0  5  0  0  0  0  0  0  0  0  0  0
  4  3  1  6  0  0  0
  2  4  1  0  0  0  0
  4  5  1  0  0  0  0
  5  6  1  0  0  0  0
  6  7  2  0  0  0  0
  6  8  1  0  0  0  0
  2  9  2  0  0  0  0
  2 10  1  0  0  0  0
A   10
OH
M  CHG  3   1   1   8  -1  10  -1
M  END
> <#>
427

> <PLATE>
LAT006

> <ROW>
C

> <COL>
5

> <COORD>
C05

> <LATID>
LAT006C05

> <Supplier>
Sigma

> <Suplier_CAT#>
A-0651

> <Name>
L-Aspartic Acid (Sodium Salt)

> <Concentration_(mM)>
2.5

> <IC50_(µM)>
inactive

> <Yeast_Active?>
-

> <Pubchem_CID>
5960

$$$$
