
  -ISIS-  08130814242D

 23 25  0  0  0  0  0  0  0  0999 V2000
    0.0000   -0.6375    0.0000 N   0  0  3  0  0  0  0  0  0  0  0  0
    0.0000    0.2833    0.0000 C   0  0  0  0  0  0  0  0  0  0  0  0
   -0.8000   -1.1000    0.0000 C   0  0  0  0  0  0  0  0  0  0  0  0
   -0.8000    0.7458    0.0000 N   0  0  0  0  0  0  0  0  0  0  0  0
   -1.5833   -0.6375    0.0000 C   0  0  0  0  0  0  0  0  0  0  0  0
   -1.5833    0.2833    0.0000 C   0  0  0  0  0  0  0  0  0  0  0  0
    0.7875    0.7333    0.0000 S   0  0  0  0  0  0  0  0  0  0  0  0
    0.7875   -1.0875    0.0000 C   0  0  0  0  0  0  0  0  0  0  0  0
   -0.8000   -2.0167    0.0000 O   0  0  0  0  0  0  0  0  0  0  0  0
    2.3667    0.7208    0.0000 C   0  0  0  0  0  0  0  0  0  0  0  0
    2.3667    1.6333    0.0000 O   0  0  0  0  0  0  0  0  0  0  0  0
    1.5792    0.2708    0.0000 C   0  0  0  0  0  0  0  0  0  0  0  0
   -2.3833   -1.1000    0.0000 C   0  0  0  0  0  0  0  0  0  0  0  0
    3.1542    0.2625    0.0000 O   0  0  0  0  0  0  0  0  0  0  0  0
   -2.3833    0.7458    0.0000 C   0  0  0  0  0  0  0  0  0  0  0  0
    0.7875   -2.0042    0.0000 C   0  0  0  0  0  0  0  0  0  0  0  0
    1.5792   -0.6292    0.0000 C   0  0  0  0  0  0  0  0  0  0  0  0
    3.9542    0.7125    0.0000 C   0  0  0  0  0  0  0  0  0  0  0  0
   -3.1833   -0.6375    0.0000 C   0  0  0  0  0  0  0  0  0  0  0  0
   -3.1833    0.2833    0.0000 C   0  0  0  0  0  0  0  0  0  0  0  0
    1.5875   -2.4667    0.0000 C   0  0  0  0  0  0  0  0  0  0  0  0
    2.3792   -1.0875    0.0000 C   0  0  0  0  0  0  0  0  0  0  0  0
    2.3792   -2.0000    0.0000 C   0  0  0  0  0  0  0  0  0  0  0  0
  2  1  1  0  0  0  0
  3  1  1  0  0  0  0
  4  2  2  0  0  0  0
  5  3  1  0  0  0  0
  6  5  2  0  0  0  0
  7  2  1  0  0  0  0
  8  1  1  0  0  0  0
  9  3  2  0  0  0  0
 10 12  1  0  0  0  0
 11 10  2  0  0  0  0
 12  7  1  0  0  0  0
 13  5  1  0  0  0  0
 14 10  1  0  0  0  0
 15  6  1  0  0  0  0
 16  8  1  0  0  0  0
 17  8  2  0  0  0  0
 18 14  1  0  0  0  0
 19 13  2  0  0  0  0
 20 19  1  0  0  0  0
 21 16  2  0  0  0  0
 22 17  1  0  0  0  0
 23 22  2  0  0  0  0
  4  6  1  0  0  0  0
 23 21  1  0  0  0  0
 15 20  2  0  0  0  0
M  END
> <#>
742

> <PLATE>
LAT010

> <ROW>
F

> <COL>
4

> <COORD>
F04

> <LATID>
LAT010F04

> <Supplier>
Chembridge

> <Suplier_CAT#>
5581592

> <Name>
Novel

> <Sec_Name>
180_C07

> <Concentration_(mM)>
2.5

> <IC50_(µM)>
98

> <Yeast_Active?>
-

> <Pubchem_CID>
711614

$$$$
