
  -ISIS-  08130814242D

 14 14  0  0  0  0  0  0  0  0999 V2000
    2.2292    0.4083    0.0000 C   0  0  0  0  0  0  0  0  0  0  0  0
    2.2292   -0.4167    0.0000 C   0  0  0  0  0  0  0  0  0  0  0  0
    1.5167   -0.8292    0.0000 C   0  0  0  0  0  0  0  0  0  0  0  0
    2.9417    0.8250    0.0000 C   0  0  0  0  0  0  0  0  0  0  0  0
    0.8042   -0.4167    0.0000 C   0  0  0  0  0  0  0  0  0  0  0  0
    1.5167    0.8208    0.0000 C   0  0  0  0  0  0  0  0  0  0  0  0
    2.9417    1.6500    0.0000 O   0  0  0  0  0  0  0  0  0  0  0  0
    0.8042    0.4083    0.0000 C   0  0  0  0  0  0  0  0  0  0  0  0
    2.9500   -0.8292    0.0000 O   0  0  0  0  0  0  0  0  0  0  0  0
    1.5167   -1.6542    0.0000 C   0  0  3  0  0  0  0  0  0  0  0  0
    3.6625    0.4208    0.0000 O   0  0  0  0  0  0  0  0  0  0  0  0
    1.5125    1.6458    0.0000 C   0  0  0  0  0  0  0  0  0  0  0  0
    2.2292   -2.0667    0.0000 C   0  0  0  0  0  0  0  0  0  0  0  0
    0.8042   -2.0667    0.0000 C   0  0  0  0  0  0  0  0  0  0  0  0
  2  1  1  0  0  0  0
  3  2  2  0  0  0  0
  4  1  1  0  0  0  0
  5  8  2  0  0  0  0
  6  1  2  0  0  0  0
  7  4  2  0  0  0  0
  8  6  1  0  0  0  0
  9  2  1  0  0  0  0
 10  3  1  0  0  0  0
 11  4  1  0  0  0  0
 12  6  1  0  0  0  0
 13 10  1  0  0  0  0
 14 10  1  0  0  0  0
  5  3  1  0  0  0  0
M  END
> <#>
82

> <PLATE>
LAT002

> <ROW>
B

> <COL>
2

> <COORD>
B02

> <LATID>
LAT002B02

> <Supplier>
Microsource

> <Suplier_CAT#>
00231017

> <Name>
Orthothymotinic Acid

> <Concentration_(mM)>
2.5

> <IC50_(µM)>
11

> <Yeast_Active?>
-

> <Pubchem_CID>
11052

> <Description>
Analgesic, Disinfectant

$$$$
