
  -ISIS-  08130814242D

 26 28  0  0  0  0  0  0  0  0999 V2000
   -1.4125    1.9000    0.0000 C   0  0  0  0  0  0  0  0  0  0  0  0
   -2.0500    0.8208    0.0000 C   0  0  0  0  0  0  0  0  0  0  0  0
   -2.0500    2.9708    0.0000 C   0  0  3  0  0  0  0  0  0  0  0  0
   -3.9125    1.9000    0.0000 C   0  0  0  0  0  0  0  0  0  0  0  0
   -3.2708    0.8208    0.0000 N   0  0  0  0  0  0  0  0  0  0  0  0
   -3.2708    2.9708    0.0000 N   0  0  0  0  0  0  0  0  0  0  0  0
   -0.1625    1.9000    0.0000 C   0  0  0  0  0  0  0  0  0  0  0  0
    0.5000    0.8000    0.0000 O   0  0  0  0  0  0  0  0  0  0  0  0
   -5.1583    1.9000    0.0000 O   0  0  0  0  0  0  0  0  0  0  0  0
   -1.4125    4.0417    0.0000 C   0  0  0  0  0  0  0  0  0  0  0  0
    0.4792    2.9833    0.0000 O   0  0  0  0  0  0  0  0  0  0  0  0
    1.7542    0.8000    0.0000 C   0  0  0  0  0  0  0  0  0  0  0  0
   -1.4125   -0.2875    0.0000 C   0  0  0  0  0  0  0  0  0  0  0  0
    2.4000   -0.3167    0.0000 C   0  0  0  0  0  0  0  0  0  0  0  0
    3.6542   -2.5000    0.0000 C   0  0  0  0  0  0  0  0  0  0  0  0
    3.6792   -0.3167    0.0000 C   0  0  0  0  0  0  0  0  0  0  0  0
    1.7792   -1.4000    0.0000 C   0  0  0  0  0  0  0  0  0  0  0  0
    2.4167   -2.5000    0.0000 C   0  0  0  0  0  0  0  0  0  0  0  0
    4.3000   -1.4000    0.0000 C   0  0  0  0  0  0  0  0  0  0  0  0
    4.2542   -3.6000    0.0000 O   0  0  0  0  0  0  0  0  0  0  0  0
   -0.1625    4.0417    0.0000 C   0  0  0  0  0  0  0  0  0  0  0  0
   -2.0500    5.1292    0.0000 C   0  0  0  0  0  0  0  0  0  0  0  0
    3.6042   -4.6667    0.0000 C   0  0  0  0  0  0  0  0  0  0  0  0
   -1.4125    6.2042    0.0000 C   0  0  0  0  0  0  0  0  0  0  0  0
    0.4292    5.1292    0.0000 C   0  0  0  0  0  0  0  0  0  0  0  0
   -0.1625    6.2042    0.0000 C   0  0  0  0  0  0  0  0  0  0  0  0
  2  1  2  0  0  0  0
  3  1  1  0  0  0  0
  4  6  1  0  0  0  0
  5  2  1  0  0  0  0
  6  3  1  0  0  0  0
  7  1  1  0  0  0  0
  8  7  1  0  0  0  0
  9  4  2  0  0  0  0
 10  3  1  0  0  0  0
 11  7  2  0  0  0  0
 12  8  1  0  0  0  0
 13  2  1  0  0  0  0
 14 12  1  0  0  0  0
 15 18  2  0  0  0  0
 16 14  1  0  0  0  0
 17 14  2  0  0  0  0
 18 17  1  0  0  0  0
 19 16  2  0  0  0  0
 20 15  1  0  0  0  0
 21 10  2  0  0  0  0
 22 10  1  0  0  0  0
 23 20  1  0  0  0  0
 24 22  2  0  0  0  0
 25 21  1  0  0  0  0
 26 24  1  0  0  0  0
  5  4  1  0  0  0  0
 26 25  2  0  0  0  0
 19 15  1  0  0  0  0
M  END
> <#>
753

> <PLATE>
LAT010

> <ROW>
A

> <COL>
6

> <COORD>
A06

> <LATID>
LAT010A06

> <Supplier>
Chembridge

> <Suplier_CAT#>
5603529

> <Name>
Novel

> <Sec_Name>
182_A10

> <Concentration_(mM)>
2.5

> <IC50_(µM)>
30

> <Yeast_Active?>
-

> <Pubchem_CID>
1043089

$$$$
