
  -ISIS-  08130814242D

 30 32  0  0  0  0  0  0  0  0999 V2000
    2.9250   -3.9917    0.0000 S   0  0  3  0  0  0  0  0  0  0  0  0
    3.6417   -3.5792    0.0000 C   0  0  0  0  0  0  0  0  0  0  0  0
    2.2042   -4.4000    0.0000 N   0  0  0  0  0  0  0  0  0  0  0  0
    3.6417   -2.7500    0.0000 C   0  0  0  0  0  0  0  0  0  0  0  0
    4.3542   -2.3375    0.0000 C   0  0  0  0  0  0  0  0  0  0  0  0
    3.3292   -4.7042    0.0000 O   0  0  0  0  0  0  0  0  0  0  0  0
    2.5167   -3.2750    0.0000 O   0  0  0  0  0  0  0  0  0  0  0  0
    7.2125   -2.3292    0.0000 C   0  0  0  0  0  0  0  0  0  0  0  0
    5.0667   -2.7500    0.0000 C   0  0  0  0  0  0  0  0  0  0  0  0
    7.9292   -2.7375    0.0000 N   0  0  0  0  0  0  0  0  0  0  0  0
    5.7792   -2.3292    0.0000 O   0  0  0  0  0  0  0  0  0  0  0  0
    9.3292   -3.5667    0.0000 N   0  0  0  0  0  0  0  0  0  0  0  0
    4.3542   -3.9917    0.0000 C   0  0  0  0  0  0  0  0  0  0  0  0
    7.2042   -1.5042    0.0000 O   0  0  0  0  0  0  0  0  0  0  0  0
    5.0667   -3.5792    0.0000 C   0  0  0  0  0  0  0  0  0  0  0  0
    6.5000   -2.7417    0.0000 C   0  0  0  0  0  0  0  0  0  0  0  0
    1.4917   -3.9792    0.0000 C   0  0  0  0  0  0  0  0  0  0  0  0
    9.3417   -2.7417    0.0000 C   0  0  0  0  0  0  0  0  0  0  0  0
    4.3542   -1.5125    0.0000 Cl  0  0  0  0  0  0  0  0  0  0  0  0
    8.6292   -2.3292    0.0000 C   0  0  0  0  0  0  0  0  0  0  0  0
    0.7792   -4.3792    0.0000 C   0  0  0  0  0  0  0  0  0  0  0  0
   10.0500   -3.9750    0.0000 C   0  0  0  0  0  0  0  0  0  0  0  0
   10.0500   -2.3292    0.0000 C   0  0  0  0  0  0  0  0  0  0  0  0
    0.0667   -3.9625    0.0000 C   0  0  0  0  0  0  0  0  0  0  0  0
    0.7750   -5.2042    0.0000 C   0  0  0  0  0  0  0  0  0  0  0  0
   10.7625   -3.5625    0.0000 C   0  0  0  0  0  0  0  0  0  0  0  0
   -0.6458   -4.3667    0.0000 C   0  0  0  0  0  0  0  0  0  0  0  0
    0.0542   -5.6125    0.0000 C   0  0  0  0  0  0  0  0  0  0  0  0
   10.7542   -2.7375    0.0000 C   0  0  0  0  0  0  0  0  0  0  0  0
   -0.6583   -5.1917    0.0000 C   0  0  0  0  0  0  0  0  0  0  0  0
  2  1  1  0  0  0  0
  3  1  1  0  0  0  0
  4  2  2  0  0  0  0
  5  4  1  0  0  0  0
  6  1  2  0  0  0  0
  7  1  2  0  0  0  0
  8 16  1  0  0  0  0
  9 15  1  0  0  0  0
 10  8  1  0  0  0  0
 11  9  1  0  0  0  0
 12 18  2  0  0  0  0
 13  2  1  0  0  0  0
 14  8  2  0  0  0  0
 15 13  2  0  0  0  0
 16 11  1  0  0  0  0
 17  3  1  0  0  0  0
 18 20  1  0  0  0  0
 19  5  1  0  0  0  0
 20 10  1  0  0  0  0
 21 17  1  0  0  0  0
 22 12  1  0  0  0  0
 23 18  1  0  0  0  0
 24 21  2  0  0  0  0
 25 21  1  0  0  0  0
 26 29  1  0  0  0  0
 27 24  1  0  0  0  0
 28 25  2  0  0  0  0
 29 23  2  0  0  0  0
 30 28  1  0  0  0  0
  5  9  2  0  0  0  0
 30 27  2  0  0  0  0
 22 26  2  0  0  0  0
M  END
> <#>
1515

> <PLATE>
LAT019

> <ROW>
C

> <COL>
11

> <COORD>
C11

> <LATID>
LAT019C11

> <Supplier>
Chembridge

> <Suplier_CAT#>
7789730

> <Name>
Novel

> <Concentration_(mM)>
2.5

> <IC50_(µM)>
32

> <Yeast_Active?>
-

> <Pubchem_CID>
1090581

$$$$
