
  -ISIS-  08130814242D

 20 21  0  0  0  0  0  0  0  0999 V2000
    3.4792   -4.0917    0.0000 C   0  0  0  0  0  0  0  0  0  0  0  0
    4.9167   -4.0875    0.0000 C   0  0  0  0  0  0  0  0  0  0  0  0
    4.2042   -4.5042    0.0000 C   0  0  0  0  0  0  0  0  0  0  0  0
    5.6375   -4.5000    0.0000 C   0  0  0  0  0  0  0  0  0  0  0  0
    3.4792   -3.2542    0.0000 C   0  0  0  0  0  0  0  0  0  0  0  0
    2.7625   -4.5042    0.0000 C   0  0  0  0  0  0  0  0  0  0  0  0
    6.3542   -4.0875    0.0000 C   0  0  0  0  0  0  0  0  0  0  0  0
    4.2042   -5.3292    0.0000 O   0  0  0  0  0  0  0  0  0  0  0  0
    7.0750   -4.5000    0.0000 C   0  0  0  0  0  0  0  0  0  0  0  0
    2.7625   -2.8417    0.0000 C   0  0  0  0  0  0  0  0  0  0  0  0
    2.0417   -4.0917    0.0000 C   0  0  0  0  0  0  0  0  0  0  0  0
    2.0417   -3.2542    0.0000 C   0  0  0  0  0  0  0  0  0  0  0  0
    4.2000   -2.8375    0.0000 O   0  0  0  0  0  0  0  0  0  0  0  0
    7.0750   -5.3250    0.0000 O   0  0  0  0  0  0  0  0  0  0  0  0
    6.3500   -3.2625    0.0000 C   0  0  0  0  0  0  0  0  0  0  0  0
    7.7917   -4.0875    0.0000 C   0  0  0  0  0  0  0  0  0  0  0  0
    1.3250   -4.5042    0.0000 C   0  0  0  0  0  0  0  0  0  0  0  0
    7.7917   -5.7417    0.0000 C   0  0  0  0  0  0  0  0  0  0  0  0
    7.7917   -3.2542    0.0000 C   0  0  0  0  0  0  0  0  0  0  0  0
    7.0667   -2.8417    0.0000 C   0  0  0  0  0  0  0  0  0  0  0  0
  2  3  1  0  0  0  0
  3  1  1  0  0  0  0
  4  2  2  0  0  0  0
  5  1  1  0  0  0  0
  6  1  2  0  0  0  0
  7  4  1  0  0  0  0
  8  3  2  0  0  0  0
  9  7  2  0  0  0  0
 10  5  2  0  0  0  0
 11  6  1  0  0  0  0
 12 11  2  0  0  0  0
 13  5  1  0  0  0  0
 14  9  1  0  0  0  0
 15  7  1  0  0  0  0
 16  9  1  0  0  0  0
 17 11  1  0  0  0  0
 18 14  1  0  0  0  0
 19 20  1  0  0  0  0
 20 15  2  0  0  0  0
 12 10  1  0  0  0  0
 19 16  2  0  0  0  0
M  END
> <#>
1320

> <PLATE>
LAT017

> <ROW>
H

> <COL>
6

> <COORD>
H06

> <LATID>
LAT017H06

> <Supplier>
Chembridge

> <Suplier_CAT#>
7112156

> <Name>
Novel

> <Concentration_(mM)>
2.5

> <IC50_(µM)>
inactive

> <Yeast_Active?>
-

> <Pubchem_CID>
2926646

$$$$
