
  -ISIS-  08130814242D

 20 21  0  0  0  0  0  0  0  0999 V2000
    6.4667   -2.7375    0.0000 C   0  0  0  0  0  0  0  0  0  0  0  0
    7.7667   -2.7375    0.0000 N   0  0  0  0  0  0  0  0  0  0  0  0
    7.1167   -3.1042    0.0000 N   0  0  0  0  0  0  0  0  0  0  0  0
    6.4667   -1.9875    0.0000 O   0  0  0  0  0  0  0  0  0  0  0  0
    9.0542   -4.9875    0.0000 N   0  0  0  0  0  0  0  0  0  0  0  0
    3.8542   -2.7292    0.0000 C   0  0  0  0  0  0  0  0  0  0  0  0
    8.4167   -3.1042    0.0000 C   0  0  0  0  0  0  0  0  0  0  0  0
    8.4042   -3.8542    0.0000 C   0  0  0  0  0  0  0  0  0  0  0  0
    5.8167   -3.1042    0.0000 C   0  0  0  0  0  0  0  0  0  0  0  0
    5.1667   -2.7375    0.0000 O   0  0  0  0  0  0  0  0  0  0  0  0
    4.5167   -3.1042    0.0000 C   0  0  0  0  0  0  0  0  0  0  0  0
    3.2167   -3.1042    0.0000 C   0  0  0  0  0  0  0  0  0  0  0  0
    2.5542   -2.7375    0.0000 Cl  0  0  0  0  0  0  0  0  0  0  0  0
    9.0542   -4.2375    0.0000 C   0  0  0  0  0  0  0  0  0  0  0  0
    3.8542   -4.2375    0.0000 C   0  0  0  0  0  0  0  0  0  0  0  0
    8.4042   -5.3542    0.0000 C   0  0  0  0  0  0  0  0  0  0  0  0
    7.7542   -4.2375    0.0000 C   0  0  0  0  0  0  0  0  0  0  0  0
    4.5167   -3.8542    0.0000 C   0  0  0  0  0  0  0  0  0  0  0  0
    3.2167   -3.8542    0.0000 C   0  0  0  0  0  0  0  0  0  0  0  0
    7.7542   -4.9875    0.0000 C   0  0  0  0  0  0  0  0  0  0  0  0
  2  3  1  0  0  0  0
  3  1  1  0  0  0  0
  4  1  2  0  0  0  0
  5 14  1  0  0  0  0
  6 11  1  0  0  0  0
  7  2  2  0  0  0  0
  8  7  1  0  0  0  0
  9  1  1  0  0  0  0
 10  9  1  0  0  0  0
 11 10  1  0  0  0  0
 12  6  2  0  0  0  0
 13 12  1  0  0  0  0
 14  8  2  0  0  0  0
 15 18  1  0  0  0  0
 16 20  1  0  0  0  0
 17  8  1  0  0  0  0
 18 11  2  0  0  0  0
 19 15  2  0  0  0  0
 20 17  2  0  0  0  0
 12 19  1  0  0  0  0
 16  5  2  0  0  0  0
M  END
> <#>
1878

> <PLATE>
LAT024

> <ROW>
F

> <COL>
6

> <COORD>
F06

> <LATID>
LAT024F06

> <Supplier>
Pharmeks

> <Suplier_CAT#>
PHAR111988

> <Name>
Novel

> <Concentration_(mM)>
2.5

> <IC50_(µM)>
8.8

> <Yeast_Active?>
-

> <Pubchem_CID>
739367

$$$$
