
  -ISIS-  08130814242D

 37 40  0  0  0  0  0  0  0  0999 V2000
   -2.1333   -0.3042    0.0000 C   0  0  0  0  0  0  0  0  0  0  0  0
   -1.4708   -0.8042    0.0000 N   0  0  3  0  0  0  0  0  0  0  0  0
   -0.8125   -0.3292    0.0000 C   0  0  0  0  0  0  0  0  0  0  0  0
   -1.8708    0.4708    0.0000 N   0  0  0  0  0  0  0  0  0  0  0  0
   -1.0500    0.4708    0.0000 N   0  0  0  0  0  0  0  0  0  0  0  0
    3.3667    0.6125    0.0000 C   0  0  0  0  0  0  0  0  0  0  0  0
    2.4042    1.6500    0.0000 C   0  0  0  0  0  0  0  0  0  0  0  0
    3.1875    1.3958    0.0000 C   0  0  0  0  0  0  0  0  0  0  0  0
    1.9875    0.3125    0.0000 C   0  0  0  0  0  0  0  0  0  0  0  0
    2.7667    0.0500    0.0000 C   0  0  0  0  0  0  0  0  0  0  0  0
    1.8042    1.0958    0.0000 C   0  0  0  0  0  0  0  0  0  0  0  0
   -2.8958   -0.6500    0.0000 N   0  0  0  0  0  0  0  0  0  0  0  0
   -0.0125   -0.5667    0.0000 S   0  0  0  0  0  0  0  0  0  0  0  0
    1.3875   -0.2667    0.0000 C   0  0  0  0  0  0  0  0  0  0  0  0
    2.2500    2.4708    0.0000 C   0  0  3  0  0  0  0  0  0  0  0  0
    4.1667    0.3958    0.0000 C   0  0  3  0  0  0  0  0  0  0  0  0
   -1.4708   -1.6292    0.0000 C   0  0  0  0  0  0  0  0  0  0  0  0
    0.5875   -0.0042    0.0000 C   0  0  0  0  0  0  0  0  0  0  0  0
    1.5667   -1.0500    0.0000 O   0  0  0  0  0  0  0  0  0  0  0  0
    3.7875    1.9708    0.0000 O   0  0  0  0  0  0  0  0  0  0  0  0
   -3.5708   -0.1292    0.0000 C   0  0  0  0  0  0  0  0  0  0  0  0
    2.1042    3.2958    0.0000 C   0  0  0  0  0  0  0  0  0  0  0  0
    1.4292    2.3333    0.0000 C   0  0  0  0  0  0  0  0  0  0  0  0
    4.9667    0.1708    0.0000 C   0  0  0  0  0  0  0  0  0  0  0  0
    4.3875    1.1958    0.0000 C   0  0  0  0  0  0  0  0  0  0  0  0
    3.9500   -0.4042    0.0000 C   0  0  0  0  0  0  0  0  0  0  0  0
    3.0667    2.6333    0.0000 C   0  0  0  0  0  0  0  0  0  0  0  0
   -2.1833   -2.0667    0.0000 C   0  0  0  0  0  0  0  0  0  0  0  0
   -0.7500   -2.0500    0.0000 C   0  0  0  0  0  0  0  0  0  0  0  0
   -3.4708    0.6958    0.0000 C   0  0  0  0  0  0  0  0  0  0  0  0
   -4.3333   -0.4667    0.0000 C   0  0  0  0  0  0  0  0  0  0  0  0
   -0.7500   -2.8792    0.0000 C   0  0  0  0  0  0  0  0  0  0  0  0
   -2.1833   -2.8792    0.0000 C   0  0  0  0  0  0  0  0  0  0  0  0
   -4.9958    0.0333    0.0000 C   0  0  0  0  0  0  0  0  0  0  0  0
   -4.1333    1.1708    0.0000 C   0  0  0  0  0  0  0  0  0  0  0  0
   -4.8958    0.8708    0.0000 C   0  0  0  0  0  0  0  0  0  0  0  0
   -1.4625   -3.3042    0.0000 C   0  0  0  0  0  0  0  0  0  0  0  0
  2  1  1  0  0  0  0
  3  2  1  0  0  0  0
  4  1  2  0  0  0  0
  5  4  1  0  0  0  0
  6 10  1  0  0  0  0
  7 11  2  0  0  0  0
  8  7  1  0  0  0  0
  9 14  1  0  0  0  0
 10  9  2  0  0  0  0
 11  9  1  0  0  0  0
 12  1  1  0  0  0  0
 13  3  1  0  0  0  0
 14 18  1  0  0  0  0
 15  7  1  0  0  0  0
 16  6  1  0  0  0  0
 17  2  1  0  0  0  0
 18 13  1  0  0  0  0
 19 14  2  0  0  0  0
 20  8  1  0  0  0  0
 21 12  1  0  0  0  0
 22 15  1  0  0  0  0
 23 15  1  0  0  0  0
 24 16  1  0  0  0  0
 25 16  1  0  0  0  0
 26 16  1  0  0  0  0
 27 15  1  0  0  0  0
 28 17  2  0  0  0  0
 29 17  1  0  0  0  0
 30 21  2  0  0  0  0
 31 21  1  0  0  0  0
 32 29  2  0  0  0  0
 33 28  1  0  0  0  0
 34 31  2  0  0  0  0
 35 30  1  0  0  0  0
 36 34  1  0  0  0  0
 37 32  1  0  0  0  0
  5  3  2  0  0  0  0
 36 35  2  0  0  0  0
 37 33  2  0  0  0  0
  8  6  2  0  0  0  0
M  END
> <#>
1158

> <PLATE>
LAT015

> <ROW>
F

> <COL>
6

> <COORD>
F06

> <LATID>
LAT015F06

> <Supplier>
Chembridge

> <Suplier_CAT#>
5144173

> <Name>
Novel

> <Concentration_(mM)>
2.5

> <IC50_(µM)>
inactive

> <Yeast_Active?>
-

> <Pubchem_CID>
1931480

$$$$
