
  -ISIS-  08130814242D

 20 21  0  0  0  0  0  0  0  0999 V2000
    0.8542   -0.7875    0.0000 C   0  0  0  0  0  0  0  0  0  0  0  0
   -1.0000   -1.8500    0.0000 C   0  0  0  0  0  0  0  0  0  0  0  0
   -0.7000   -1.3042    0.0000 C   0  0  0  0  0  0  0  0  0  0  0  0
    1.1792   -0.2500    0.0000 N   0  0  0  0  0  0  0  0  0  0  0  0
   -0.0833   -1.3042    0.0000 O   0  0  0  0  0  0  0  0  0  0  0  0
   -1.6208   -1.8500    0.0000 C   0  0  0  0  0  0  0  0  0  0  0  0
    1.1542   -1.3292    0.0000 O   0  0  0  0  0  0  0  0  0  0  0  0
   -1.0000   -0.7667    0.0000 C   0  0  0  0  0  0  0  0  0  0  0  0
    0.2375   -0.7875    0.0000 C   0  0  0  0  0  0  0  0  0  0  0  0
   -1.9458   -1.3042    0.0000 C   0  0  0  0  0  0  0  0  0  0  0  0
    1.8000   -0.2500    0.0000 C   0  0  0  0  0  0  0  0  0  0  0  0
   -1.6000   -0.7500    0.0000 C   0  0  0  0  0  0  0  0  0  0  0  0
   -2.5625   -1.3292    0.0000 Cl  0  0  0  0  0  0  0  0  0  0  0  0
    2.1000    0.2958    0.0000 C   0  0  0  0  0  0  0  0  0  0  0  0
   -0.6833   -2.3875    0.0000 C   0  0  0  0  0  0  0  0  0  0  0  0
    1.8000    0.8333    0.0000 C   0  0  0  0  0  0  0  0  0  0  0  0
    2.7167    0.2708    0.0000 C   0  0  0  0  0  0  0  0  0  0  0  0
    2.1167    1.3500    0.0000 C   0  0  0  0  0  0  0  0  0  0  0  0
    3.0375    0.7958    0.0000 C   0  0  0  0  0  0  0  0  0  0  0  0
    2.7375    1.3500    0.0000 C   0  0  0  0  0  0  0  0  0  0  0  0
  2  3  1  0  0  0  0
  3  5  1  0  0  0  0
  4  1  1  0  0  0  0
  5  9  1  0  0  0  0
  6  2  2  0  0  0  0
  7  1  2  0  0  0  0
  8  3  2  0  0  0  0
  9  1  1  0  0  0  0
 10 12  2  0  0  0  0
 11  4  1  0  0  0  0
 12  8  1  0  0  0  0
 13 10  1  0  0  0  0
 14 11  1  0  0  0  0
 15  2  1  0  0  0  0
 16 14  2  0  0  0  0
 17 14  1  0  0  0  0
 18 16  1  0  0  0  0
 19 17  2  0  0  0  0
 20 19  1  0  0  0  0
  6 10  1  0  0  0  0
 20 18  2  0  0  0  0
M  END
> <#>
735

> <PLATE>
LAT010

> <ROW>
G

> <COL>
3

> <COORD>
G03

> <LATID>
LAT010G03

> <Supplier>
Chembridge

> <Suplier_CAT#>
5570511

> <Name>
Novel

> <Sec_Name>
174_B10

> <Concentration_(mM)>
2.5

> <IC50_(µM)>
8.5

> <Yeast_Active?>
-

> <Pubchem_CID>
720853

$$$$
