
  -ISIS-  08130814242D

 13 13  0  0  0  0  0  0  0  0999 V2000
   -0.8000   -0.0875    0.0000 S   0  0  3  0  0  0  0  0  0  0  0  0
   -1.5333    0.0333    0.0000 N   0  0  0  0  0  0  0  0  0  0  0  0
   -2.0000   -0.5500    0.0000 N   0  0  0  0  0  0  0  0  0  0  0  0
   -0.6500    0.6333    0.0000 O   0  0  0  0  0  0  0  0  0  0  0  0
   -0.9333   -0.8500    0.0000 O   0  0  0  0  0  0  0  0  0  0  0  0
   -3.4500   -2.3167    0.0000 N   0  0  0  0  0  0  0  0  0  0  0  0
   -2.7625   -0.4292    0.0000 C   0  0  0  0  0  0  0  0  0  0  0  0
   -3.2458   -1.0167    0.0000 C   0  0  0  0  0  0  0  0  0  0  0  0
   -0.0500   -0.2375    0.0000 C   0  0  0  0  0  0  0  0  0  0  0  0
   -2.9833   -1.7292    0.0000 C   0  0  0  0  0  0  0  0  0  0  0  0
   -4.2208   -2.2042    0.0000 C   0  0  0  0  0  0  0  0  0  0  0  0
   -3.9958   -0.9042    0.0000 C   0  0  0  0  0  0  0  0  0  0  0  0
   -4.4708   -1.4875    0.0000 C   0  0  0  0  0  0  0  0  0  0  0  0
  2  1  1  0  0  0  0
  3  2  1  0  0  0  0
  4  1  2  0  0  0  0
  5  1  2  0  0  0  0
  6 10  2  0  0  0  0
  7  3  2  0  0  0  0
  8  7  1  0  0  0  0
  9  1  1  0  0  0  0
 10  8  1  0  0  0  0
 11 13  2  0  0  0  0
 12  8  2  0  0  0  0
 13 12  1  0  0  0  0
  6 11  1  0  0  0  0
M  END
> <#>
1664

> <PLATE>
LAT021

> <ROW>
H

> <COL>
9

> <COORD>
H09

> <LATID>
LAT021H09

> <Supplier>
Chembridge

> <Suplier_CAT#>
5511526

> <Name>
Novel

> <Concentration_(mM)>
2.5

> <IC50_(µM)>
inactive

> <Yeast_Active?>
-

> <Pubchem_CID>
870758

$$$$
