
  -ISIS-  08130814242D

 20 22  0  0  0  0  0  0  0  0999 V2000
   -0.1333    1.3208    0.0000 C   0  0  0  0  0  0  0  0  0  0  0  0
   10.4292   -4.6917    0.0000 C   0  0  0  0  0  0  0  0  0  0  0  0
    6.8917   -4.6917    0.0000 C   0  0  0  0  0  0  0  0  0  0  0  0
    1.6500   -1.6542    0.0000 N   0  0  0  0  0  0  0  0  0  0  0  0
   12.1750   -1.6542    0.0000 C   0  0  0  0  0  0  0  0  0  0  0  0
   12.7917   -7.3125    0.0000 O   0  0  0  0  0  0  0  0  0  0  0  0
   -3.6458    1.3208    0.0000 N   0  0  0  0  0  0  0  0  0  0  0  0
   15.6625   -2.3875    0.0000 O   0  0  0  0  0  0  0  0  0  0  0  0
    5.1542   -1.6375    0.0000 C   0  0  0  0  0  0  0  0  0  0  0  0
   16.0000   -5.8667    0.0000 C   0  0  0  0  0  0  0  0  0  0  0  0
  -10.7542    7.3125    0.0000 N   0  0  0  0  0  0  0  0  0  0  0  0
    1.6292    4.3417    0.0000 O   0  0  0  0  0  0  0  0  0  0  0  0
   10.4167    1.3750    0.0000 C   0  0  0  0  0  0  0  0  0  0  0  0
   -8.9167    4.3042    0.0000 C   0  0  0  0  0  0  0  0  0  0  0  0
   -5.4208    4.3250    0.0000 C   0  0  0  0  0  0  0  0  0  0  0  0
    6.8750    1.3375    0.0000 C   0  0  0  0  0  0  0  0  0  0  0  0
  -14.2667    7.2500    0.0000 C   0  0  0  0  0  0  0  0  0  0  0  0
  -10.6500    1.2833    0.0000 C   0  0  0  0  0  0  0  0  0  0  0  0
  -16.0000    4.1917    0.0000 C   0  0  0  0  0  0  0  0  0  0  0  0
  -14.1542    1.2125    0.0000 C   0  0  0  0  0  0  0  0  0  0  0  0
  2  3  2  0  0  0  0
  3  9  1  0  0  0  0
  4  1  1  0  0  0  0
  5 13  2  0  0  0  0
  6  2  1  0  0  0  0
  7  1  1  0  0  0  0
  8  5  1  0  0  0  0
  9  4  1  0  0  0  0
 10  6  1  0  0  0  0
 11 14  2  0  0  0  0
 12  1  2  0  0  0  0
 13 16  1  0  0  0  0
 14 15  1  0  0  0  0
 15  7  1  0  0  0  0
 16  9  2  0  0  0  0
 17 11  1  0  0  0  0
 18 14  1  0  0  0  0
 19 20  1  0  0  0  0
 20 18  2  0  0  0  0
  2  5  1  0  0  0  0
 19 17  2  0  0  0  0
 10  8  1  0  0  0  0
M  END
> <#>
1432

> <PLATE>
LAT018

> <ROW>
H

> <COL>
10

> <COORD>
H10

> <LATID>
LAT018H10

> <Supplier>
Chembridge

> <Suplier_CAT#>
7815030

> <Name>
Novel

> <Concentration_(mM)>
2.5

> <IC50_(µM)>
>100

> <Yeast_Active?>
-

> <Pubchem_CID>
971167

$$$$
