
  -ISIS-  08130814242D

 31 34  0  0  0  0  0  0  0  0999 V2000
    2.6250   -2.2542    0.0000 C   0  0  0  0  0  0  0  0  0  0  0  0
    3.2750   -2.6292    0.0000 C   0  0  0  0  0  0  0  0  0  0  0  0
    1.9750   -2.6292    0.0000 N   0  0  0  0  0  0  0  0  0  0  0  0
    1.3250   -2.2542    0.0000 C   0  0  0  0  0  0  0  0  0  0  0  0
    2.6250   -1.5042    0.0000 C   0  0  0  0  0  0  0  0  0  0  0  0
    4.4917   -0.8375    0.0000 C   0  0  0  0  0  0  0  0  0  0  0  0
    4.5750   -2.6292    0.0000 N   0  0  0  0  0  0  0  0  0  0  0  0
    4.3792   -0.0917    0.0000 C   0  0  0  0  0  0  0  0  0  0  0  0
    5.2292   -0.9542    0.0000 O   0  0  0  0  0  0  0  0  0  0  0  0
    3.2125   -1.0292    0.0000 C   0  0  0  0  0  0  0  0  0  0  0  0
    5.0500    0.2458    0.0000 O   0  0  0  0  0  0  0  0  0  0  0  0
    3.9250   -2.2542    0.0000 N   0  0  0  0  0  0  0  0  0  0  0  0
    5.5792   -0.2875    0.0000 C   0  0  0  0  0  0  0  0  0  0  0  0
    3.9042   -1.3042    0.0000 C   0  0  0  0  0  0  0  0  0  0  0  0
    3.2750   -3.3792    0.0000 O   0  0  0  0  0  0  0  0  0  0  0  0
    1.3250   -1.5042    0.0000 O   0  0  0  0  0  0  0  0  0  0  0  0
    0.6750   -2.6292    0.0000 C   0  0  0  0  0  0  0  0  0  0  0  0
    7.1667   -2.6292    0.0000 N   0  0  0  0  0  0  0  0  0  0  0  0
    5.2250   -2.2542    0.0000 C   0  0  0  0  0  0  0  0  0  0  0  0
    3.6792    0.1750    0.0000 C   0  0  0  0  0  0  0  0  0  0  0  0
    5.8667   -2.6292    0.0000 C   0  0  0  0  0  0  0  0  0  0  0  0
    3.0917   -0.2917    0.0000 C   0  0  0  0  0  0  0  0  0  0  0  0
    6.5167   -2.2542    0.0000 C   0  0  0  0  0  0  0  0  0  0  0  0
    7.1667   -3.3792    0.0000 C   0  0  0  0  0  0  0  0  0  0  0  0
    0.0167   -2.2500    0.0000 C   0  0  0  0  0  0  0  0  0  0  0  0
    0.6750   -3.3792    0.0000 C   0  0  0  0  0  0  0  0  0  0  0  0
    5.8667   -3.3792    0.0000 C   0  0  0  0  0  0  0  0  0  0  0  0
    6.5167   -3.7542    0.0000 C   0  0  0  0  0  0  0  0  0  0  0  0
   -0.6250   -2.6292    0.0000 C   0  0  0  0  0  0  0  0  0  0  0  0
    0.0167   -3.7542    0.0000 C   0  0  0  0  0  0  0  0  0  0  0  0
   -0.6250   -3.3792    0.0000 C   0  0  0  0  0  0  0  0  0  0  0  0
  2  1  1  0  0  0  0
  3  1  1  0  0  0  0
  4  3  1  0  0  0  0
  5  1  2  0  0  0  0
  6 14  2  0  0  0  0
  7 12  1  0  0  0  0
  8 20  2  0  0  0  0
  9  6  1  0  0  0  0
 10  5  1  0  0  0  0
 11  8  1  0  0  0  0
 12  2  1  0  0  0  0
 13  9  1  0  0  0  0
 14 10  1  0  0  0  0
 15  2  2  0  0  0  0
 16  4  2  0  0  0  0
 17  4  1  0  0  0  0
 18 23  1  0  0  0  0
 19  7  2  0  0  0  0
 20 22  1  0  0  0  0
 21 19  1  0  0  0  0
 22 10  2  0  0  0  0
 23 21  2  0  0  0  0
 24 28  1  0  0  0  0
 25 17  1  0  0  0  0
 26 17  2  0  0  0  0
 27 21  1  0  0  0  0
 28 27  2  0  0  0  0
 29 25  2  0  0  0  0
 30 26  1  0  0  0  0
 31 30  2  0  0  0  0
  8  6  1  0  0  0  0
 11 13  1  0  0  0  0
 31 29  1  0  0  0  0
 18 24  2  0  0  0  0
M  END
> <#>
1641

> <PLATE>
LAT021

> <ROW>
A

> <COL>
7

> <COORD>
A07

> <LATID>
LAT021A07

> <Supplier>
Chembridge

> <Suplier_CAT#>
6047637

> <Name>
Novel

> <Concentration_(mM)>
2.5

> <IC50_(µM)>
>100

> <Yeast_Active?>
-

> <Pubchem_CID>
2882584

$$$$
