
  -ISIS-  08130814242D

 21 22  0  0  0  0  0  0  0  0999 V2000
   -0.8833   -7.4167    0.0000 N   0  3  0  0  0  0  0  0  0  0  0  0
   -1.5375   -7.0375    0.0000 C   0  0  0  0  0  0  0  0  0  0  0  0
   -2.1833   -5.1625    0.0000 C   0  0  3  0  0  0  0  0  0  0  0  0
   -1.5375   -6.2875    0.0000 C   0  0  0  0  0  0  0  0  0  0  0  0
   -2.1833   -5.9125    0.0000 C   0  0  0  0  0  0  0  0  0  0  0  0
   -2.1833   -7.4125    0.0000 C   0  0  0  0  0  0  0  0  0  0  0  0
   -0.8833   -8.1667    0.0000 O   0  5  0  0  0  0  0  0  0  0  0  0
   -2.1833   -8.1625    0.0000 N   0  0  0  0  0  0  0  0  0  0  0  0
   -0.2375   -7.0417    0.0000 O   0  0  0  0  0  0  0  0  0  0  0  0
   -0.8875   -9.6625    0.0000 N   0  0  0  0  0  0  0  0  0  0  0  0
   -2.8333   -6.2875    0.0000 C   0  0  0  0  0  0  0  0  0  0  0  0
   -2.8333   -7.0375    0.0000 C   0  0  0  0  0  0  0  0  0  0  0  0
   -2.1833   -4.4125    0.0000 F   0  0  0  0  0  0  0  0  0  0  0  0
   -1.4333   -5.1625    0.0000 F   0  0  0  0  0  0  0  0  0  0  0  0
   -2.9333   -5.1625    0.0000 F   0  0  0  0  0  0  0  0  0  0  0  0
   -1.5375   -9.2875    0.0000 C   0  0  0  0  0  0  0  0  0  0  0  0
   -1.5375   -8.5375    0.0000 C   0  0  0  0  0  0  0  0  0  0  0  0
   -0.8875  -10.4125    0.0000 C   0  0  0  0  0  0  0  0  0  0  0  0
   -2.1833   -9.6625    0.0000 C   0  0  0  0  0  0  0  0  0  0  0  0
   -1.5375  -10.7875    0.0000 C   0  0  0  0  0  0  0  0  0  0  0  0
   -2.1833  -10.4125    0.0000 C   0  0  0  0  0  0  0  0  0  0  0  0
  2  1  1  0  0  0  0
  3  5  1  0  0  0  0
  4  2  2  0  0  0  0
  5  4  1  0  0  0  0
  6  2  1  0  0  0  0
  7  1  1  0  0  0  0
  8  6  1  0  0  0  0
  9  1  2  0  0  0  0
 10 16  2  0  0  0  0
 11 12  1  0  0  0  0
 12  6  2  0  0  0  0
 13  3  1  0  0  0  0
 14  3  1  0  0  0  0
 15  3  1  0  0  0  0
 16 17  1  0  0  0  0
 17  8  1  0  0  0  0
 18 10  1  0  0  0  0
 19 16  1  0  0  0  0
 20 21  1  0  0  0  0
 21 19  2  0  0  0  0
  5 11  2  0  0  0  0
 20 18  2  0  0  0  0
M  CHG  2   1   1   7  -1
M  END
> <#>
1510

> <PLATE>
LAT019

> <ROW>
F

> <COL>
10

> <COORD>
F10

> <LATID>
LAT019F10

> <Supplier>
Chembridge

> <Suplier_CAT#>
7763861

> <Name>
Novel

> <Concentration_(mM)>
2.5

> <IC50_(µM)>
inactive

> <Yeast_Active?>
-

> <Pubchem_CID>
2952710

$$$$
