
  -ISIS-  08130814242D

 22 24  0  0  0  0  0  0  0  0999 V2000
    2.2542   -0.5042    0.0000 N   0  3  0  0  0  0  0  0  0  0  0  0
   -1.0625    2.8125    0.0000 N   0  0  0  0  0  0  0  0  0  0  0  0
   -0.6833    2.2958    0.0000 C   0  0  0  0  0  0  0  0  0  0  0  0
   -1.0625    1.7708    0.0000 N   0  0  0  0  0  0  0  0  0  0  0  0
    1.9167    0.0500    0.0000 C   0  0  0  0  0  0  0  0  0  0  0  0
    1.2542    0.0500    0.0000 C   0  0  0  0  0  0  0  0  0  0  0  0
   -1.6625    2.6125    0.0000 C   0  0  0  0  0  0  0  0  0  0  0  0
   -1.6625    1.9708    0.0000 C   0  0  0  0  0  0  0  0  0  0  0  0
    0.9375    0.6125    0.0000 C   0  0  0  0  0  0  0  0  0  0  0  0
    1.9375   -1.0667    0.0000 O   0  5  0  0  0  0  0  0  0  0  0  0
    2.9000   -0.5042    0.0000 O   0  0  0  0  0  0  0  0  0  0  0  0
   -0.0208    2.2958    0.0000 C   0  0  0  0  0  0  0  0  0  0  0  0
    1.2792    1.1708    0.0000 C   0  0  0  0  0  0  0  0  0  0  0  0
    2.2375    0.6125    0.0000 C   0  0  0  0  0  0  0  0  0  0  0  0
    1.9167    1.1708    0.0000 C   0  0  0  0  0  0  0  0  0  0  0  0
    0.9542    1.7333    0.0000 N   0  0  0  0  0  0  0  0  0  0  0  0
    0.3000    0.6125    0.0000 Cl  0  0  0  0  0  0  0  0  0  0  0  0
    0.3000    1.7333    0.0000 C   0  0  0  0  0  0  0  0  0  0  0  0
   -2.2208    2.9333    0.0000 C   0  0  0  0  0  0  0  0  0  0  0  0
   -2.2208    1.6500    0.0000 C   0  0  0  0  0  0  0  0  0  0  0  0
   -2.7833    2.6125    0.0000 C   0  0  0  0  0  0  0  0  0  0  0  0
   -2.7833    1.9708    0.0000 C   0  0  0  0  0  0  0  0  0  0  0  0
  2  3  2  0  0  0  0
  3 12  1  0  0  0  0
  4  3  1  0  0  0  0
  5  1  1  0  0  0  0
  6  5  2  0  0  0  0
  7  2  1  0  0  0  0
  8  4  1  0  0  0  0
  9  6  1  0  0  0  0
 10  1  1  0  0  0  0
 11  1  2  0  0  0  0
 12 18  1  0  0  0  0
 13 15  1  0  0  0  0
 14  5  1  0  0  0  0
 15 14  2  0  0  0  0
 16 13  1  0  0  0  0
 17  9  1  0  0  0  0
 18 16  1  0  0  0  0
 19  7  1  0  0  0  0
 20  8  1  0  0  0  0
 21 19  2  0  0  0  0
 22 20  2  0  0  0  0
 13  9  2  0  0  0  0
  8  7  2  0  0  0  0
 22 21  1  0  0  0  0
M  CHG  2   1   1  10  -1
M  END
> <#>
1853

> <PLATE>
LAT024

> <ROW>
E

> <COL>
3

> <COORD>
E03

> <LATID>
LAT024E03

> <Supplier>
Chembridge

> <Suplier_CAT#>
5728270

> <Name>
Novel

> <Sec_Name>
230_B11

> <Concentration_(mM)>
2.5

> <IC50_(µM)>
9

> <Yeast_Active?>
-

> <Pubchem_CID>
NULL

$$$$
