
  -ISIS-  08130814242D

  9  9  0  0  0  0  0  0  0  0999 V2000
    7.4982   -2.7117    0.0000 N   0  0  0  0  0  0  0  0  0  0  0  0
    7.4982   -3.6040    0.0000 C   0  0  0  0  0  0  0  0  0  0  0  0
    8.2710   -4.0501    0.0000 O   0  0  0  0  0  0  0  0  0  0  0  0
    6.7255   -4.0501    0.0000 N   0  0  0  0  0  0  0  0  0  0  0  0
    5.9527   -3.6040    0.0000 C   0  0  0  0  0  0  0  0  0  0  0  0
    5.1799   -4.0501    0.0000 O   0  0  0  0  0  0  0  0  0  0  0  0
    5.9527   -2.7117    0.0000 C   0  0  0  0  0  0  0  0  0  0  0  0
    5.1799   -2.2655    0.0000 C   0  0  0  0  0  0  0  0  0  0  0  0
    6.7255   -2.2655    0.0000 C   0  0  0  0  0  0  0  0  0  0  0  0
  1  2  1  0  0  0  0
  2  3  2  0  0  0  0
  2  4  1  0  0  0  0
  4  5  1  0  0  0  0
  5  6  2  0  0  0  0
  5  7  1  0  0  0  0
  7  8  1  0  0  0  0
  7  9  2  0  0  0  0
  1  9  1  0  0  0  0
M  END
> <#>
508

> <PLATE>
LAT007

> <ROW>
D

> <COL>
5

> <COORD>
D05

> <LATID>
LAT007D05

> <Supplier>
Becton Dickinson

> <Suplier_CAT#>
Thymine

> <Name>
Thymine

> <Concentration_(mM)>
2.5

> <IC50_(µM)>
inactive

> <Yeast_Active?>
-

> <Pubchem_CID>
1135

$$$$
