
  -ISIS-  08130814242D

 34 38  0  0  0  0  0  0  0  0999 V2000
    4.5931   -3.1334    0.0000 C   0  0  0  0  0  0  0  0  0  0  0  0
    4.5901   -2.3102    0.0000 C   0  0  0  0  0  0  0  0  0  0  0  0
    3.8768   -1.9030    0.0000 C   0  0  0  0  0  0  0  0  0  0  0  0
    3.1660   -2.3179    0.0000 C   0  0  0  0  0  0  0  0  0  0  0  0
    3.1730   -3.1442    0.0000 C   0  0  0  0  0  0  0  0  0  0  0  0
    3.8869   -3.5477    0.0000 C   0  0  0  0  0  0  0  0  0  0  0  0
    8.0624   -4.3455    0.0000 C   0  0  0  0  0  0  0  0  0  0  0  0
    8.0707   -3.5372    0.0000 C   0  0  0  0  0  0  0  0  0  0  0  0
    7.3784   -3.1426    0.0000 C   0  0  2  0  0  0  0  0  0  0  0  0
    6.6987   -4.3403    0.0000 C   0  0  2  0  0  0  0  0  0  0  0  0
    6.6945   -3.5444    0.0000 C   0  0  2  0  0  0  0  0  0  0  0  0
    6.0067   -3.1522    0.0000 C   0  0  0  0  0  0  0  0  0  0  0  0
    5.3141   -3.5517    0.0000 C   0  0  1  0  0  0  0  0  0  0  0  0
    6.0151   -4.7397    0.0000 C   0  0  1  0  0  0  0  0  0  0  0  0
    5.3183   -4.3475    0.0000 C   0  0  0  0  0  0  0  0  0  0  0  0
    5.3266   -5.9398    0.0000 C   0  0  0  0  0  0  0  0  0  0  0  0
    6.0192   -5.5355    0.0000 C   0  0  0  0  0  0  0  0  0  0  0  0
    4.6388   -5.5428    0.0000 C   0  0  0  0  0  0  0  0  0  0  0  0
    4.6346   -4.7469    0.0000 C   0  0  0  0  0  0  0  0  0  0  0  0
    3.9420   -4.3547    0.0000 C   0  0  0  0  0  0  0  0  0  0  0  0
    3.2583   -4.7542    0.0000 C   0  0  0  0  0  0  0  0  0  0  0  0
    3.2625   -5.5500    0.0000 C   0  0  0  0  0  0  0  0  0  0  0  0
    3.9503   -5.9471    0.0000 C   0  0  0  0  0  0  0  0  0  0  0  0
    2.5491   -5.9644    0.0000 O   0  0  0  0  0  0  0  0  0  0  0  0
    6.0083   -3.9125    0.0000 H   0  0  0  0  0  0  0  0  0  0  0  0
    6.4417   -2.6292    0.0000 C   0  0  0  0  0  0  0  0  0  0  0  0
    8.1708   -2.9250    0.0000 C   0  0  0  0  0  0  0  0  0  0  0  0
    7.3708   -2.3167    0.0000 O   0  0  0  0  0  0  0  0  0  0  0  0
    8.9667   -2.7083    0.0000 C   0  0  0  0  0  0  0  0  0  0  0  0
    9.7625   -2.4917    0.0000 C   0  0  0  0  0  0  0  0  0  0  0  0
    2.4488   -1.9101    0.0000 N   0  0  3  0  0  0  0  0  0  0  0  0
    2.4417   -1.0833    0.0000 C   0  0  0  0  0  0  0  0  0  0  0  0
    1.7292   -2.3167    0.0000 C   0  0  0  0  0  0  0  0  0  0  0  0
    6.6917   -5.1625    0.0000 H   0  0  0  0  0  0  0  0  0  0  0  0
 10 11  1  0  0  0  0
 11 12  1  0  0  0  0
 12 13  1  0  0  0  0
 13 15  1  0  0  0  0
 14 10  1  0  0  0  0
 14 15  1  0  0  0  0
 15 19  2  0  0  0  0
 18 16  1  0  0  0  0
 16 17  1  0  0  0  0
 17 14  1  0  0  0  0
 18 19  1  0  0  0  0
 19 20  1  0  0  0  0
 20 21  1  0  0  0  0
 21 22  1  0  0  0  0
 22 23  1  0  0  0  0
 23 18  2  0  0  0  0
  4  5  1  0  0  0  0
 22 24  2  0  0  0  0
  2  3  1  0  0  0  0
 14 25  1  1  0  0  0
  5  6  2  0  0  0  0
 11 26  1  1  0  0  0
  6  1  1  0  0  0  0
  9 27  1  6  0  0  0
  1  2  2  0  0  0  0
  9 28  1  0  0  0  0
  3  4  2  0  0  0  0
 27 29  3  0  0  0  0
 29 30  1  0  0  0  0
 13  1  1  1  0  0  0
  7  8  1  0  0  0  0
  4 31  1  0  0  0  0
  8  9  1  0  0  0  0
 31 32  1  0  0  0  0
  9 11  1  0  0  0  0
 31 33  1  0  0  0  0
 10  7  1  0  0  0  0
 10 34  1  6  0  0  0
M  END
> <#>
250

> <PLATE>
LAT004

> <ROW>
B

> <COL>
3

> <COORD>
B03

> <LATID>
LAT004B03

> <Supplier>
Sigma

> <Suplier_CAT#>
M 8046

> <Name>
Mifepristone

> <Concentration_(mM)>
2.5

> <IC50_(µM)>
25

> <Yeast_Active?>
-

> <Pubchem_CID>
4196

> <Description>
Progesterone receptor antagonist

$$$$
