
  -ISIS-  08130814242D

 19 20  0  0  0  0  0  0  0  0999 V2000
    0.3000    1.5833    0.0000 C   0  0  0  0  0  0  0  0  0  0  0  0
    0.4500    1.1458    0.0000 O   0  0  0  0  0  0  0  0  0  0  0  0
    0.6000    1.9583    0.0000 C   0  0  0  0  0  0  0  0  0  0  0  0
   -0.2125    1.6000    0.0000 C   0  0  0  0  0  0  0  0  0  0  0  0
    0.0167    0.8500    0.0000 C   0  0  0  0  0  0  0  0  0  0  0  0
   -0.3625    1.1500    0.0000 C   0  0  0  0  0  0  0  0  0  0  0  0
    1.0792    1.8625    0.0000 N   0  0  0  0  0  0  0  0  0  0  0  0
    2.1667    2.5208    0.0000 C   0  0  0  0  0  0  0  0  0  0  0  0
    2.6500    2.4333    0.0000 C   0  0  0  0  0  0  0  0  0  0  0  0
    1.4000    2.2333    0.0000 C   0  0  0  0  0  0  0  0  0  0  0  0
    0.4292    2.4125    0.0000 O   0  0  0  0  0  0  0  0  0  0  0  0
    1.8542    2.1625    0.0000 C   0  0  0  0  0  0  0  0  0  0  0  0
    3.0000    2.7708    0.0000 O   0  0  0  0  0  0  0  0  0  0  0  0
    0.0000    0.3708    0.0000 C   0  0  0  0  0  0  0  0  0  0  0  0
   -0.8208    1.0333    0.0000 C   0  0  0  0  0  0  0  0  0  0  0  0
    2.0042    2.9708    0.0000 C   0  0  0  0  0  0  0  0  0  0  0  0
    1.5292    3.0458    0.0000 C   0  0  0  0  0  0  0  0  0  0  0  0
    1.2292    2.6708    0.0000 C   0  0  0  0  0  0  0  0  0  0  0  0
    2.8000    2.0000    0.0000 C   0  0  0  0  0  0  0  0  0  0  0  0
  2  1  1  0  0  0  0
  3  1  1  0  0  0  0
  4  1  2  0  0  0  0
  5  2  1  0  0  0  0
  6  4  1  0  0  0  0
  7  3  1  0  0  0  0
  8 12  1  0  0  0  0
  9  8  1  0  0  0  0
 10  7  1  0  0  0  0
 11  3  2  0  0  0  0
 12 10  2  0  0  0  0
 13  9  2  0  0  0  0
 14  5  1  0  0  0  0
 15  6  1  0  0  0  0
 16 17  1  0  0  0  0
 17 18  2  0  0  0  0
 18 10  1  0  0  0  0
 19  9  1  0  0  0  0
  5  6  2  0  0  0  0
 16  8  2  0  0  0  0
M  END
> <#>
878

> <PLATE>
LAT011

> <ROW>
F

> <COL>
11

> <COORD>
F11

> <LATID>
LAT011F11

> <Supplier>
Chembridge

> <Suplier_CAT#>
5673675

> <Name>
Novel

> <Sec_Name>
213_G11

> <Concentration_(mM)>
2.5

> <IC50_(µM)>
28

> <Yeast_Active?>
-

> <Pubchem_CID>
867851

$$$$
