
  -ISIS-  08130814242D

 26 28  0  0  0  0  0  0  0  0999 V2000
    4.9167    1.5375    0.0000 N   0  0  0  0  0  0  0  0  0  0  0  0
    1.4292    1.7833    0.0000 N   0  3  0  0  0  0  0  0  0  0  0  0
    5.6042    1.8458    0.0000 C   0  0  0  0  0  0  0  0  0  0  0  0
    4.4167    2.0958    0.0000 C   0  0  0  0  0  0  0  0  0  0  0  0
    5.5250    2.5875    0.0000 N   0  0  0  0  0  0  0  0  0  0  0  0
    4.7917    2.7458    0.0000 C   0  0  0  0  0  0  0  0  0  0  0  0
    8.2042    1.8458    0.0000 C   0  0  0  0  0  0  0  0  0  0  0  0
    2.1792    1.8583    0.0000 C   0  0  0  0  0  0  0  0  0  0  0  0
    8.8542    1.4708    0.0000 C   0  0  0  0  0  0  0  0  0  0  0  0
    9.5042    1.8458    0.0000 C   0  0  0  0  0  0  0  0  0  0  0  0
    0.9917    2.3958    0.0000 O   0  5  0  0  0  0  0  0  0  0  0  0
    7.5542    1.4708    0.0000 C   0  0  0  0  0  0  0  0  0  0  0  0
    3.6667    2.0208    0.0000 C   0  0  0  0  0  0  0  0  0  0  0  0
    6.2542    1.4708    0.0000 S   0  0  0  0  0  0  0  0  0  0  0  0
    1.1292    1.0958    0.0000 O   0  0  0  0  0  0  0  0  0  0  0  0
    9.5042    2.5958    0.0000 C   0  0  0  0  0  0  0  0  0  0  0  0
    6.9042    1.8458    0.0000 C   0  0  0  0  0  0  0  0  0  0  0  0
    8.2042    2.5958    0.0000 C   0  0  0  0  0  0  0  0  0  0  0  0
    7.5542    0.7208    0.0000 O   0  0  0  0  0  0  0  0  0  0  0  0
    2.6167    1.2500    0.0000 C   0  0  0  0  0  0  0  0  0  0  0  0
    2.4875    2.5458    0.0000 C   0  0  0  0  0  0  0  0  0  0  0  0
    3.3667    1.3333    0.0000 C   0  0  0  0  0  0  0  0  0  0  0  0
    3.2292    2.6208    0.0000 C   0  0  0  0  0  0  0  0  0  0  0  0
    8.8542    2.9708    0.0000 C   0  0  0  0  0  0  0  0  0  0  0  0
   10.1417    1.4708    0.0000 O   0  0  0  0  0  0  0  0  0  0  0  0
   10.1417    2.9708    0.0000 O   0  0  0  0  0  0  0  0  0  0  0  0
  2  8  1  0  0  0  0
  3  1  2  0  0  0  0
  4  1  1  0  0  0  0
  5  3  1  0  0  0  0
  6  4  2  0  0  0  0
  7 12  1  0  0  0  0
  8 21  1  0  0  0  0
  9  7  2  0  0  0  0
 10  9  1  0  0  0  0
 11  2  1  0  0  0  0
 12 17  1  0  0  0  0
 13  4  1  0  0  0  0
 14  3  1  0  0  0  0
 15  2  2  0  0  0  0
 16 24  1  0  0  0  0
 17 14  1  0  0  0  0
 18  7  1  0  0  0  0
 19 12  2  0  0  0  0
 20 22  1  0  0  0  0
 21 23  2  0  0  0  0
 22 13  2  0  0  0  0
 23 13  1  0  0  0  0
 24 18  2  0  0  0  0
 25 10  1  0  0  0  0
 26 16  1  0  0  0  0
  6  5  1  0  0  0  0
 20  8  2  0  0  0  0
 10 16  2  0  0  0  0
M  CHG  2   2   1  11  -1
M  END
> <#>
1392

> <PLATE>
LAT018

> <ROW>
H

> <COL>
5

> <COORD>
H05

> <LATID>
LAT018H05

> <Supplier>
Chembridge

> <Suplier_CAT#>
7961947

> <Name>
Novel

> <Concentration_(mM)>
2.5

> <IC50_(µM)>
inactive

> <Yeast_Active?>
-

> <Pubchem_CID>
NULL

$$$$
