
  -ISIS-  08130814242D

 20 21  0  0  0  0  0  0  0  0999 V2000
   -2.3000   -1.1042    0.0000 N   0  0  0  0  0  0  0  0  0  0  0  0
    1.4167   -2.4500    0.0000 C   0  0  0  0  0  0  0  0  0  0  0  0
   -1.5458   -0.6875    0.0000 C   0  0  0  0  0  0  0  0  0  0  0  0
    0.6792   -1.9875    0.0000 C   0  0  0  0  0  0  0  0  0  0  0  0
   -0.8000   -1.1042    0.0000 C   0  0  0  0  0  0  0  0  0  0  0  0
    2.1792   -2.0500    0.0000 O   0  0  0  0  0  0  0  0  0  0  0  0
   -0.0625   -2.4042    0.0000 C   0  0  0  0  0  0  0  0  0  0  0  0
    0.7000   -1.1042    0.0000 C   0  0  0  0  0  0  0  0  0  0  0  0
   -0.8208   -1.9875    0.0000 C   0  0  0  0  0  0  0  0  0  0  0  0
   -0.0625   -0.6875    0.0000 C   0  0  0  0  0  0  0  0  0  0  0  0
   -1.5458    0.1708    0.0000 C   0  0  0  0  0  0  0  0  0  0  0  0
   -3.0458   -0.6667    0.0000 C   0  0  0  0  0  0  0  0  0  0  0  0
    1.4000   -3.3042    0.0000 O   0  0  0  0  0  0  0  0  0  0  0  0
   -2.2833    0.6125    0.0000 C   0  0  0  0  0  0  0  0  0  0  0  0
   -3.0208    0.1958    0.0000 C   0  0  0  0  0  0  0  0  0  0  0  0
   -3.7833    0.6333    0.0000 C   0  0  0  0  0  0  0  0  0  0  0  0
   -3.7625    1.4958    0.0000 C   0  0  0  0  0  0  0  0  0  0  0  0
   -4.5000    2.7958    0.0000 C   0  0  0  0  0  0  0  0  0  0  0  0
   -4.5000    1.9333    0.0000 C   0  0  0  0  0  0  0  0  0  0  0  0
   -5.2458    3.2125    0.0000 C   0  0  0  0  0  0  0  0  0  0  0  0
  2  4  1  0  0  0  0
  3  1  1  0  0  0  0
  4  8  2  0  0  0  0
  5  3  1  0  0  0  0
  6  2  2  0  0  0  0
  7  9  2  0  0  0  0
  8 10  1  0  0  0  0
  9  5  1  0  0  0  0
 10  5  2  0  0  0  0
 11  3  2  0  0  0  0
 12  1  2  0  0  0  0
 13  2  1  0  0  0  0
 14 15  2  0  0  0  0
 15 12  1  0  0  0  0
 16 15  1  0  0  0  0
 17 16  1  0  0  0  0
 18 19  1  0  0  0  0
 19 17  1  0  0  0  0
 20 18  1  0  0  0  0
 14 11  1  0  0  0  0
  7  4  1  0  0  0  0
M  END
> <#>
1835

> <PLATE>
LAT023

> <ROW>
C

> <COL>
11

> <COORD>
C11

> <LATID>
LAT023C11

> <Supplier>
Chembridge

> <Suplier_CAT#>
5684649

> <Name>
Pyridinylbenzoic acid

> <Sec_Name>
218_D09

> <Concentration_(mM)>
2.5

> <IC50_(µM)>
8

> <Yeast_Active?>
-

> <Pubchem_CID>
2053671

$$$$
