
  -ISIS-  08130814242D

 27 30  0  0  0  0  0  0  0  0999 V2000
    2.2292   -0.8792    0.0000 C   0  0  0  0  0  0  0  0  0  0  0  0
   -1.1625    2.0458    0.0000 C   0  0  0  0  0  0  0  0  0  0  0  0
    3.0375   -1.3792    0.0000 C   0  0  0  0  0  0  0  0  0  0  0  0
   -1.9833    1.5625    0.0000 N   0  0  3  0  0  0  0  0  0  0  0  0
    3.0000   -2.3375    0.0000 C   0  0  0  0  0  0  0  0  0  0  0  0
    2.2292    0.0958    0.0000 O   0  0  0  0  0  0  0  0  0  0  0  0
   -0.3000    1.5625    0.0000 C   0  0  0  0  0  0  0  0  0  0  0  0
   -1.1625    3.0208    0.0000 S   0  0  0  0  0  0  0  0  0  0  0  0
    1.3542   -1.3042    0.0000 O   0  0  0  0  0  0  0  0  0  0  0  0
   -3.6208    0.5625    0.0000 O   0  0  0  0  0  0  0  0  0  0  0  0
   -0.3000    0.6000    0.0000 C   0  0  0  0  0  0  0  0  0  0  0  0
    0.5542    2.0458    0.0000 C   0  0  0  0  0  0  0  0  0  0  0  0
    3.8167   -2.8667    0.0000 C   0  0  0  0  0  0  0  0  0  0  0  0
    1.4000    0.5833    0.0000 C   0  0  0  0  0  0  0  0  0  0  0  0
    1.4000    1.5625    0.0000 C   0  0  0  0  0  0  0  0  0  0  0  0
    0.5542    0.1000    0.0000 C   0  0  0  0  0  0  0  0  0  0  0  0
    3.9000   -0.9292    0.0000 C   0  0  0  0  0  0  0  0  0  0  0  0
   -1.9708    0.6000    0.0000 C   0  0  0  0  0  0  0  0  0  0  0  0
   -2.8458    2.0208    0.0000 C   0  0  0  0  0  0  0  0  0  0  0  0
    2.1292   -2.7875    0.0000 C   0  0  0  0  0  0  0  0  0  0  0  0
    4.7292   -1.4292    0.0000 C   0  0  0  0  0  0  0  0  0  0  0  0
   -2.8000    0.1000    0.0000 C   0  0  0  0  0  0  0  0  0  0  0  0
   -3.6625    1.5208    0.0000 C   0  0  0  0  0  0  0  0  0  0  0  0
    4.6792   -2.4042    0.0000 C   0  0  0  0  0  0  0  0  0  0  0  0
    3.7792   -3.8375    0.0000 C   0  0  0  0  0  0  0  0  0  0  0  0
    2.0792   -3.7667    0.0000 C   0  0  0  0  0  0  0  0  0  0  0  0
    2.9042   -4.2875    0.0000 C   0  0  0  0  0  0  0  0  0  0  0  0
  2  7  1  0  0  0  0
  3  1  1  0  0  0  0
  4  2  1  0  0  0  0
  5  3  2  0  0  0  0
  6  1  1  0  0  0  0
  7 11  2  0  0  0  0
  8  2  2  0  0  0  0
  9  1  2  0  0  0  0
 10 23  1  0  0  0  0
 11 16  1  0  0  0  0
 12 15  2  0  0  0  0
 13  5  1  0  0  0  0
 14  6  1  0  0  0  0
 15 14  1  0  0  0  0
 16 14  2  0  0  0  0
 17  3  1  0  0  0  0
 18  4  1  0  0  0  0
 19  4  1  0  0  0  0
 20  5  1  0  0  0  0
 21 17  2  0  0  0  0
 22 18  1  0  0  0  0
 23 19  1  0  0  0  0
 24 21  1  0  0  0  0
 25 13  1  0  0  0  0
 26 20  2  0  0  0  0
 27 26  1  0  0  0  0
  7 12  1  0  0  0  0
 24 13  2  0  0  0  0
 25 27  2  0  0  0  0
 10 22  1  0  0  0  0
M  END
> <#>
948

> <PLATE>
LAT012

> <ROW>
D

> <COL>
10

> <COORD>
D10

> <LATID>
LAT012D10

> <Supplier>
Chembridge

> <Suplier_CAT#>
5730115

> <Name>
Novel

> <Sec_Name>
231_E09

> <Concentration_(mM)>
2.5

> <IC50_(µM)>
18

> <Yeast_Active?>
-

> <Pubchem_CID>
1100727

$$$$
