
  -ISIS-  08130814242D

 19 20  0  0  0  0  0  0  0  0999 V2000
   -1.2125   -0.0875    0.0000 C   0  0  0  0  0  0  0  0  0  0  0  0
   -0.6625   -0.3792    0.0000 N   0  0  0  0  0  0  0  0  0  0  0  0
   -1.2125    0.5125    0.0000 O   0  0  0  0  0  0  0  0  0  0  0  0
   -2.2708   -0.1500    0.0000 O   0  0  0  0  0  0  0  0  0  0  0  0
   -0.1458   -0.0500    0.0000 C   0  0  0  0  0  0  0  0  0  0  0  0
   -1.7208   -0.4167    0.0000 C   0  0  0  0  0  0  0  0  0  0  0  0
   -2.8125   -0.5042    0.0000 C   0  0  0  0  0  0  0  0  0  0  0  0
   -3.8708   -1.2000    0.0000 C   0  0  0  0  0  0  0  0  0  0  0  0
   -4.3625   -1.5875    0.0000 Cl  0  0  0  0  0  0  0  0  0  0  0  0
    0.9167    0.6000    0.0000 C   0  0  0  0  0  0  0  0  0  0  0  0
   -0.1500    0.5708    0.0000 C   0  0  0  0  0  0  0  0  0  0  0  0
    0.4000   -0.3375    0.0000 C   0  0  0  0  0  0  0  0  0  0  0  0
   -2.7958   -1.0875    0.0000 C   0  0  0  0  0  0  0  0  0  0  0  0
   -3.3833   -0.2167    0.0000 C   0  0  0  0  0  0  0  0  0  0  0  0
   -3.3208   -1.4500    0.0000 C   0  0  0  0  0  0  0  0  0  0  0  0
   -3.9125   -0.5542    0.0000 C   0  0  0  0  0  0  0  0  0  0  0  0
    0.9292   -0.0292    0.0000 C   0  0  0  0  0  0  0  0  0  0  0  0
    0.3792    0.9000    0.0000 C   0  0  0  0  0  0  0  0  0  0  0  0
    1.4375    0.9208    0.0000 C   0  0  0  0  0  0  0  0  0  0  0  0
  2  1  1  0  0  0  0
  3  1  2  0  0  0  0
  4  6  1  0  0  0  0
  5  2  1  0  0  0  0
  6  1  1  0  0  0  0
  7  4  1  0  0  0  0
  8 16  1  0  0  0  0
  9  8  1  0  0  0  0
 10 17  1  0  0  0  0
 11  5  2  0  0  0  0
 12  5  1  0  0  0  0
 13  7  2  0  0  0  0
 14  7  1  0  0  0  0
 15 13  1  0  0  0  0
 16 14  2  0  0  0  0
 17 12  2  0  0  0  0
 18 11  1  0  0  0  0
 19 10  1  0  0  0  0
 10 18  2  0  0  0  0
  8 15  2  0  0  0  0
M  END
> <#>
714

> <PLATE>
LAT009

> <ROW>
B

> <COL>
11

> <COORD>
B11

> <LATID>
LAT009B11

> <Supplier>
Chembridge

> <Suplier_CAT#>
5560595

> <Name>
Novel

> <Sec_Name>
172_D05

> <Concentration_(mM)>
2.5

> <IC50_(µM)>
0.25

> <Yeast_Active?>
-

> <Pubchem_CID>
302783

$$$$
