
  -ISIS-  08130814242D

 20 22  0  0  0  0  0  0  0  0999 V2000
    4.7768    2.7652    0.0000 C   0  0  0  0  0  0  0  0  0  0  0  0
    3.6950    2.1390    0.0000 O   0  0  0  0  0  0  0  0  0  0  0  0
    3.6964    0.8890    0.0000 C   0  0  0  0  0  0  0  0  0  0  0  0
    4.7796    0.2652    0.0000 C   0  0  0  0  0  0  0  0  0  0  0  0
    4.7811   -0.9848    0.0000 C   0  0  0  0  0  0  0  0  0  0  0  0
    3.6993   -1.6110    0.0000 C   0  0  0  0  0  0  0  0  0  0  0  0
    2.6160   -0.9873    0.0000 C   0  0  0  0  0  0  0  0  0  0  0  0
    2.6146    0.2627    0.0000 C   0  0  0  0  0  0  0  0  0  0  0  0
    1.5313    0.8865    0.0000 N   0  0  0  0  0  0  0  0  0  0  0  0
    1.5342   -1.6135    0.0000 C   0  0  0  0  0  0  0  0  0  0  0  0
    1.5356   -2.8635    0.0000 C   0  0  0  0  0  0  0  0  0  0  0  0
    0.4538   -3.4897    0.0000 C   0  0  0  0  0  0  0  0  0  0  0  0
    0.4552   -4.7397    0.0000 O   0  0  0  0  0  0  0  0  0  0  0  0
   -0.6294   -2.8660    0.0000 C   0  0  0  0  0  0  0  0  0  0  0  0
   -1.7113   -3.4922    0.0000 C   0  0  0  0  0  0  0  0  0  0  0  0
   -2.7945   -2.8684    0.0000 C   0  0  0  0  0  0  0  0  0  0  0  0
   -2.7959   -1.6184    0.0000 C   0  0  0  0  0  0  0  0  0  0  0  0
   -1.7141   -0.9922    0.0000 C   0  0  0  0  0  0  0  0  0  0  0  0
   -0.6309   -1.6160    0.0000 C   0  0  0  0  0  0  0  0  0  0  0  0
    0.4509   -0.9897    0.0000 O   0  0  0  0  0  0  0  0  0  0  0  0
  1  2  1  0  0  0  0
  2  3  1  0  0  0  0
  3  4  2  0  0  0  0
  4  5  1  0  0  0  0
  5  6  2  0  0  0  0
  6  7  1  0  0  0  0
  7  8  2  0  0  0  0
  3  8  1  0  0  0  0
  8  9  1  0  0  0  0
  7 10  1  0  0  0  0
 10 11  2  0  0  0  0
 11 12  1  0  0  0  0
 12 13  2  0  0  0  0
 12 14  1  0  0  0  0
 14 15  2  0  0  0  0
 15 16  1  0  0  0  0
 16 17  2  0  0  0  0
 17 18  1  0  0  0  0
 18 19  2  0  0  0  0
 14 19  1  0  0  0  0
 19 20  1  0  0  0  0
 10 20  1  0  0  0  0
M  END
> <#>
429

> <PLATE>
LAT006

> <ROW>
E

> <COL>
5

> <COORD>
E05

> <LATID>
LAT006E05

> <Supplier>
Sigma

> <Suplier_CAT#>
P215

> <Name>
PD 98,059

> <Concentration_(mM)>
2.5

> <IC50_(µM)>
>100

> <Yeast_Active?>
-

> <Pubchem_CID>
4713

$$$$
