
  -ISIS-  08130814242D

 24 26  0  0  0  0  0  0  0  0999 V2000
    1.6292   -0.6500    0.0000 S   0  0  3  0  0  0  0  0  0  0  0  0
    1.6292    0.1333    0.0000 C   0  0  0  0  0  0  0  0  0  0  0  0
    0.9500    0.5333    0.0000 C   0  0  0  0  0  0  0  0  0  0  0  0
    1.6292   -1.4292    0.0000 N   0  0  0  0  0  0  0  0  0  0  0  0
    0.9500    1.3125    0.0000 C   0  0  0  0  0  0  0  0  0  0  0  0
    2.3042    0.5125    0.0000 C   0  0  0  0  0  0  0  0  0  0  0  0
    2.4042   -0.6500    0.0000 O   0  0  0  0  0  0  0  0  0  0  0  0
    0.8500   -0.6500    0.0000 O   0  0  0  0  0  0  0  0  0  0  0  0
    1.6292    1.7125    0.0000 C   0  0  0  0  0  0  0  0  0  0  0  0
    2.3042    1.3333    0.0000 C   0  0  0  0  0  0  0  0  0  0  0  0
    0.9500   -4.1500    0.0000 N   0  0  0  0  0  0  0  0  0  0  0  0
    0.9500   -1.8042    0.0000 C   0  0  0  0  0  0  0  0  0  0  0  0
    1.6292    2.4958    0.0000 O   0  0  0  0  0  0  0  0  0  0  0  0
    0.9500   -2.5875    0.0000 C   0  0  0  0  0  0  0  0  0  0  0  0
    0.2667    0.1333    0.0000 C   0  0  0  0  0  0  0  0  0  0  0  0
    0.2667    1.7125    0.0000 C   0  0  0  0  0  0  0  0  0  0  0  0
    1.6500   -3.7500    0.0000 C   0  0  0  0  0  0  0  0  0  0  0  0
    0.2667   -3.7667    0.0000 C   0  0  0  0  0  0  0  0  0  0  0  0
    2.2875    2.8708    0.0000 C   0  0  0  0  0  0  0  0  0  0  0  0
    1.6292   -2.9667    0.0000 C   0  0  0  0  0  0  0  0  0  0  0  0
    0.2667   -2.9875    0.0000 C   0  0  0  0  0  0  0  0  0  0  0  0
   -0.4125    0.5125    0.0000 C   0  0  0  0  0  0  0  0  0  0  0  0
   -0.4125    1.3333    0.0000 C   0  0  0  0  0  0  0  0  0  0  0  0
    2.2875    3.6500    0.0000 C   0  0  0  0  0  0  0  0  0  0  0  0
  2  1  1  0  0  0  0
  3  2  1  0  0  0  0
  4  1  1  0  0  0  0
  5  3  1  0  0  0  0
  6  2  2  0  0  0  0
  7  1  2  0  0  0  0
  8  1  2  0  0  0  0
  9 10  2  0  0  0  0
 10  6  1  0  0  0  0
 11 18  1  0  0  0  0
 12  4  1  0  0  0  0
 13  9  1  0  0  0  0
 14 12  1  0  0  0  0
 15  3  2  0  0  0  0
 16  5  2  0  0  0  0
 17 20  1  0  0  0  0
 18 21  2  0  0  0  0
 19 13  1  0  0  0  0
 20 14  2  0  0  0  0
 21 14  1  0  0  0  0
 22 15  1  0  0  0  0
 23 22  2  0  0  0  0
 24 19  1  0  0  0  0
  5  9  1  0  0  0  0
 11 17  2  0  0  0  0
 16 23  1  0  0  0  0
M  END
> <#>
1937

> <PLATE>
LAT025

> <ROW>
A

> <COL>
4

> <COORD>
A04

> <LATID>
LAT025A04

> <Supplier>
Chembridge

> <Suplier_CAT#>
5661396

> <Name>
Novel

> <Concentration_(mM)>
2.5

> <IC50_(µM)>
inactive

> <Yeast_Active?>
-

> <Pubchem_CID>
794388

$$$$
