
  -ISIS-  08130814242D

 24 27  0  0  0  0  0  0  0  0999 V2000
    4.6667    3.5000    0.0000 C   0  0  0  0  0  0  0  0  0  0  0  0
    4.6667    2.1000    0.0000 C   0  0  0  0  0  0  0  0  0  0  0  0
    3.4500    4.2000    0.0000 C   0  0  0  0  0  0  0  0  0  0  0  0
    3.4500    1.4000    0.0000 C   0  0  0  0  0  0  0  0  0  0  0  0
    5.8792    4.2000    0.0000 C   0  0  0  0  0  0  0  0  0  0  0  0
    7.0917    3.5000    0.0000 C   0  0  0  0  0  0  0  0  0  0  0  0
    5.8792    1.4000    0.0000 C   0  0  0  0  0  0  0  0  0  0  0  0
    2.2375    3.5000    0.0000 C   0  0  0  0  0  0  0  0  0  0  0  0
    2.2375    2.1000    0.0000 C   0  0  0  0  0  0  0  0  0  0  0  0
    7.0917    2.1000    0.0000 C   0  0  0  0  0  0  0  0  0  0  0  0
    8.3042    4.2000    0.0000 N   0  0  3  0  0  0  0  0  0  0  0  0
    3.4500    5.5417    0.0000 O   0  0  0  0  0  0  0  0  0  0  0  0
    3.4500    0.0000    0.0000 O   0  0  0  0  0  0  0  0  0  0  0  0
    5.8792    5.5417    0.0000 O   0  0  0  0  0  0  0  0  0  0  0  0
   10.6792    5.5917    0.0000 O   0  0  0  0  0  0  0  0  0  0  0  0
    5.8792    0.0000    0.0000 O   0  0  0  0  0  0  0  0  0  0  0  0
    1.0250    1.4000    0.0000 C   0  0  0  0  0  0  0  0  0  0  0  0
    1.0250    4.2000    0.0000 C   0  0  0  0  0  0  0  0  0  0  0  0
    9.5167    3.5000    0.0000 C   0  0  0  0  0  0  0  0  0  0  0  0
    8.3042    5.5917    0.0000 C   0  0  0  0  0  0  0  0  0  0  0  0
    9.5167    6.3000    0.0000 C   0  0  0  0  0  0  0  0  0  0  0  0
   10.6792    4.2000    0.0000 C   0  0  0  0  0  0  0  0  0  0  0  0
    0.0000    3.5000    0.0000 C   0  0  0  0  0  0  0  0  0  0  0  0
    0.0000    2.1000    0.0000 C   0  0  0  0  0  0  0  0  0  0  0  0
  2  1  2  0  0  0  0
  3  1  1  0  0  0  0
  4  2  1  0  0  0  0
  5  1  1  0  0  0  0
  6  5  2  0  0  0  0
  7  2  1  0  0  0  0
  8  3  1  0  0  0  0
  9  8  1  0  0  0  0
 10  6  1  0  0  0  0
 11  6  1  0  0  0  0
 12  3  2  0  0  0  0
 13  4  2  0  0  0  0
 14  5  1  0  0  0  0
 15 21  1  0  0  0  0
 16  7  1  0  0  0  0
 17  9  2  0  0  0  0
 18  8  2  0  0  0  0
 19 11  1  0  0  0  0
 20 11  1  0  0  0  0
 21 20  1  0  0  0  0
 22 19  1  0  0  0  0
 23 18  1  0  0  0  0
 24 23  2  0  0  0  0
  7 10  2  0  0  0  0
  4  9  1  0  0  0  0
 15 22  1  0  0  0  0
 17 24  1  0  0  0  0
M  END
> <#>
1373

> <PLATE>
LAT018

> <ROW>
E

> <COL>
3

> <COORD>
E03

> <LATID>
LAT018E03

> <Supplier>
Chembridge

> <Suplier_CAT#>
7421556

> <Name>
Novel

> <Concentration_(mM)>
2.5

> <IC50_(µM)>
inactive

> <Yeast_Active?>
-

> <Pubchem_CID>
NULL

$$$$
