
  -ISIS-  08130814242D

 24 26  0  0  0  0  0  0  0  0999 V2000
    4.9000   -1.8542    0.0000 C   0  0  0  0  0  0  0  0  0  0  0  0
    2.3000   -1.8542    0.0000 C   0  0  0  0  0  0  0  0  0  0  0  0
    5.5500   -1.4875    0.0000 C   0  0  0  0  0  0  0  0  0  0  0  0
    3.6000   -1.8542    0.0000 N   0  0  0  0  0  0  0  0  0  0  0  0
    1.6500   -1.4792    0.0000 C   0  0  3  0  0  0  0  0  0  0  0  0
    4.8875   -2.6042    0.0000 C   0  0  0  0  0  0  0  0  0  0  0  0
    2.9500   -1.4792    0.0000 N   0  0  0  0  0  0  0  0  0  0  0  0
    4.2500   -1.4875    0.0000 C   0  0  0  0  0  0  0  0  0  0  0  0
    2.3000   -2.6042    0.0000 O   0  0  0  0  0  0  0  0  0  0  0  0
    6.1875   -1.8542    0.0000 C   0  0  0  0  0  0  0  0  0  0  0  0
    5.5375   -2.9875    0.0000 C   0  0  0  0  0  0  0  0  0  0  0  0
    1.0000   -1.8542    0.0000 C   0  0  0  0  0  0  0  0  0  0  0  0
    6.1875   -2.6042    0.0000 C   0  0  0  0  0  0  0  0  0  0  0  0
    1.6500   -0.7292    0.0000 O   0  0  0  0  0  0  0  0  0  0  0  0
    4.2375   -2.9875    0.0000 O   0  0  0  0  0  0  0  0  0  0  0  0
    5.5500   -0.7375    0.0000 C   0  0  0  0  0  0  0  0  0  0  0  0
    0.3375   -1.4792    0.0000 C   0  0  0  0  0  0  0  0  0  0  0  0
    1.0000   -2.6042    0.0000 C   0  0  0  0  0  0  0  0  0  0  0  0
    6.8375   -1.4875    0.0000 C   0  0  0  0  0  0  0  0  0  0  0  0
    6.2000   -0.3542    0.0000 C   0  0  0  0  0  0  0  0  0  0  0  0
   -0.3000   -1.8542    0.0000 C   0  0  0  0  0  0  0  0  0  0  0  0
    0.3375   -2.9875    0.0000 C   0  0  0  0  0  0  0  0  0  0  0  0
    6.8500   -0.7375    0.0000 C   0  0  0  0  0  0  0  0  0  0  0  0
   -0.3000   -2.6042    0.0000 C   0  0  0  0  0  0  0  0  0  0  0  0
  2  7  1  0  0  0  0
  3  1  2  0  0  0  0
  4  8  2  0  0  0  0
  5  2  1  0  0  0  0
  6  1  1  0  0  0  0
  7  4  1  0  0  0  0
  8  1  1  0  0  0  0
  9  2  2  0  0  0  0
 10  3  1  0  0  0  0
 11  6  2  0  0  0  0
 12  5  1  0  0  0  0
 13 11  1  0  0  0  0
 14  5  1  0  0  0  0
 15  6  1  0  0  0  0
 16  3  1  0  0  0  0
 17 12  1  0  0  0  0
 18 12  2  0  0  0  0
 19 10  1  0  0  0  0
 20 16  2  0  0  0  0
 21 17  2  0  0  0  0
 22 18  1  0  0  0  0
 23 20  1  0  0  0  0
 24 22  2  0  0  0  0
 13 10  2  0  0  0  0
 23 19  2  0  0  0  0
 24 21  1  0  0  0  0
M  END
> <#>
1070

> <PLATE>
LAT014

> <ROW>
F

> <COL>
5

> <COORD>
F05

> <LATID>
LAT014F05

> <Supplier>
Chembridge

> <Suplier_CAT#>
5524422

> <Name>
Novel

> <Sec_Name>
146_C09

> <Concentration_(mM)>
2.5

> <IC50_(µM)>
100

> <Yeast_Active?>
-

> <Pubchem_CID>
NULL

$$$$
