
  -ISIS-  08130814242D

 11 11  0  0  0  0  0  0  0  0999 V2000
    1.9875   -5.0517    0.0000 C   0  0  0  0  0  0  0  0  0  0  0  0
    3.2375   -5.0517    0.0000 C   0  0  0  0  0  0  0  0  0  0  0  0
    3.8625   -3.9691    0.0000 C   0  0  0  0  0  0  0  0  0  0  0  0
    5.1125   -3.9691    0.0000 C   0  0  0  0  0  0  0  0  0  0  0  0
    5.7375   -5.0517    0.0000 C   0  0  0  0  0  0  0  0  0  0  0  0
    5.1125   -6.1342    0.0000 C   0  0  0  0  0  0  0  0  0  0  0  0
    3.8625   -6.1342    0.0000 C   0  0  0  0  0  0  0  0  0  0  0  0
    1.3625   -6.1342    0.0000 O   0  0  0  0  0  0  0  0  0  0  0  0
    1.3625   -3.9691    0.0000 O   0  0  0  0  0  0  0  0  0  0  0  0
    6.9875   -5.0517    0.0000 O   0  0  0  0  0  0  0  0  0  0  0  0
    3.2375   -2.8866    0.0000 O   0  0  0  0  0  0  0  0  0  0  0  0
  1  2  1  0  0  0  0
  2  3  1  0  0  0  0
  3  4  2  0  0  0  0
  4  5  1  0  0  0  0
  5  6  2  0  0  0  0
  6  7  1  0  0  0  0
  2  7  2  0  0  0  0
  1  8  2  0  0  0  0
  1  9  1  0  0  0  0
  5 10  1  0  0  0  0
  3 11  1  0  0  0  0
M  END
> <#>
356

> <PLATE>
LAT005

> <ROW>
D

> <COL>
6

> <COORD>
D06

> <LATID>
LAT005D06

> <Supplier>
Aldrich

> <Suplier_CAT#>
D109401

> <Name>
2,4-Dihydroxybenzoic Acid

> <Concentration_(mM)>
2.5

> <IC50_(µM)>
inactive

> <Yeast_Active?>
-

> <Pubchem_CID>
1491

$$$$
