
  -ISIS-  08130814242D

 22 23  0  0  0  0  0  0  0  0999 V2000
    3.2042    0.2625    0.0000 S   0  0  3  0  0  0  0  0  0  0  0  0
    4.0292    0.2625    0.0000 C   0  0  0  0  0  0  0  0  0  0  0  0
    4.4417    0.9750    0.0000 C   0  0  0  0  0  0  0  0  0  0  0  0
    5.2750    0.9750    0.0000 C   0  0  0  0  0  0  0  0  0  0  0  0
    5.6875    0.2625    0.0000 C   0  0  0  0  0  0  0  0  0  0  0  0
    4.4417   -0.4542    0.0000 C   0  0  0  0  0  0  0  0  0  0  0  0
    2.3792    0.2625    0.0000 N   0  0  0  0  0  0  0  0  0  0  0  0
    5.2750   -0.4542    0.0000 C   0  0  0  0  0  0  0  0  0  0  0  0
    3.2042    1.0875    0.0000 O   0  0  0  0  0  0  0  0  0  0  0  0
    3.2042   -0.5667    0.0000 O   0  0  0  0  0  0  0  0  0  0  0  0
    0.7292   -1.1667    0.0000 N   0  0  0  0  0  0  0  0  0  0  0  0
    1.9667   -0.4542    0.0000 C   0  0  0  0  0  0  0  0  0  0  0  0
    1.1417   -0.4542    0.0000 C   0  0  0  0  0  0  0  0  0  0  0  0
    6.5125    0.2625    0.0000 O   0  0  0  0  0  0  0  0  0  0  0  0
    4.0292    1.6958    0.0000 C   0  0  0  0  0  0  0  0  0  0  0  0
    5.6875    1.6958    0.0000 C   0  0  0  0  0  0  0  0  0  0  0  0
    5.6875   -1.1667    0.0000 C   0  0  0  0  0  0  0  0  0  0  0  0
   -0.0958   -1.1667    0.0000 C   0  0  0  0  0  0  0  0  0  0  0  0
    0.7292    0.2625    0.0000 C   0  0  0  0  0  0  0  0  0  0  0  0
    6.9250   -0.4542    0.0000 C   0  0  0  0  0  0  0  0  0  0  0  0
   -0.5083   -0.4542    0.0000 C   0  0  0  0  0  0  0  0  0  0  0  0
   -0.0958    0.2625    0.0000 C   0  0  0  0  0  0  0  0  0  0  0  0
  2  1  1  0  0  0  0
  3  2  2  0  0  0  0
  4  3  1  0  0  0  0
  5  8  1  0  0  0  0
  6  2  1  0  0  0  0
  7  1  1  0  0  0  0
  8  6  2  0  0  0  0
  9  1  2  0  0  0  0
 10  1  2  0  0  0  0
 11 13  2  0  0  0  0
 12  7  1  0  0  0  0
 13 12  1  0  0  0  0
 14  5  1  0  0  0  0
 15  3  1  0  0  0  0
 16  4  1  0  0  0  0
 17  8  1  0  0  0  0
 18 11  1  0  0  0  0
 19 13  1  0  0  0  0
 20 14  1  0  0  0  0
 21 22  1  0  0  0  0
 22 19  2  0  0  0  0
  4  5  2  0  0  0  0
 18 21  2  0  0  0  0
M  END
> <#>
1952

> <PLATE>
LAT025

> <ROW>
H

> <COL>
5

> <COORD>
H05

> <LATID>
LAT025H05

> <Supplier>
Chembridge

> <Suplier_CAT#>
7801092

> <Name>
Novel

> <Concentration_(mM)>
2.5

> <IC50_(µM)>
>100

> <Yeast_Active?>
-

> <Pubchem_CID>
970530

$$$$
