
  -ISIS-  08130814242D

 21 23  0  0  0  0  0  0  0  0999 V2000
    2.9375   -1.2042    0.0000 N   0  0  3  0  0  0  0  0  0  0  0  0
    3.6167   -0.0875    0.0000 C   0  0  0  0  0  0  0  0  0  0  0  0
    1.5500    0.3958    0.0000 C   0  0  0  0  0  0  0  0  0  0  0  0
    1.6292   -0.8875    0.0000 C   0  0  0  0  0  0  0  0  0  0  0  0
   -0.7208    0.4208    0.0000 C   0  0  0  0  0  0  0  0  0  0  0  0
    2.7292    0.9125    0.0000 S   0  0  0  0  0  0  0  0  0  0  0  0
   -1.8500    1.0958    0.0000 C   0  0  0  0  0  0  0  0  0  0  0  0
    0.4167    1.0625    0.0000 C   0  0  0  0  0  0  0  0  0  0  0  0
   -3.0000    0.4208    0.0000 C   0  0  0  0  0  0  0  0  0  0  0  0
   -0.7208   -0.8875    0.0000 C   0  0  0  0  0  0  0  0  0  0  0  0
   -1.8500   -1.5542    0.0000 O   0  0  0  0  0  0  0  0  0  0  0  0
    4.9375    0.0000    0.0000 S   0  0  0  0  0  0  0  0  0  0  0  0
   -3.0000   -0.8875    0.0000 C   0  0  0  0  0  0  0  0  0  0  0  0
    0.5875   -1.7042    0.0000 O   0  0  0  0  0  0  0  0  0  0  0  0
   -1.8500    2.4000    0.0000 O   0  0  0  0  0  0  0  0  0  0  0  0
    3.4542   -2.4042    0.0000 C   0  0  0  0  0  0  0  0  0  0  0  0
   -4.1208    1.0958    0.0000 C   0  0  0  0  0  0  0  0  0  0  0  0
   -4.1208   -1.5542    0.0000 C   0  0  0  0  0  0  0  0  0  0  0  0
    4.7667   -2.5500    0.0000 C   0  0  0  0  0  0  0  0  0  0  0  0
   -5.2708    0.4208    0.0000 C   0  0  0  0  0  0  0  0  0  0  0  0
   -5.2708   -0.8875    0.0000 C   0  0  0  0  0  0  0  0  0  0  0  0
  2  1  1  0  0  0  0
  3  4  1  0  0  0  0
  4  1  1  0  0  0  0
  5  8  1  0  0  0  0
  6  2  1  0  0  0  0
  7  5  1  0  0  0  0
  8  3  2  0  0  0  0
  9  7  1  0  0  0  0
 10  5  2  0  0  0  0
 11 10  1  0  0  0  0
 12  2  2  0  0  0  0
 13 11  1  0  0  0  0
 14  4  2  0  0  0  0
 15  7  2  0  0  0  0
 16  1  1  0  0  0  0
 17  9  1  0  0  0  0
 18 13  1  0  0  0  0
 19 16  1  0  0  0  0
 20 17  2  0  0  0  0
 21 18  2  0  0  0  0
  6  3  1  0  0  0  0
 13  9  2  0  0  0  0
 21 20  1  0  0  0  0
M  END
> <#>
2074

> <PLATE>
LAT026

> <ROW>
B

> <COL>
11

> <COORD>
B11

> <LATID>
LAT026B11

> <Supplier>
Chembridge

> <Suplier_CAT#>
5667599

> <Sec_Name>
210_C03

> <Concentration_(mM)>
2.5

> <IC50_(µM)>
inactive

> <Yeast_Active?>
-

> <Pubchem_CID>
372956

$$$$
