
  -ISIS-  08130814242D

 31 34  0  0  0  0  0  0  0  0999 V2000
    1.4792    0.8500    0.0000 C   0  0  0  0  0  0  0  0  0  0  0  0
    0.4375    0.4833    0.0000 N   0  0  3  0  0  0  0  0  0  0  0  0
    2.3042    0.1458    0.0000 N   0  0  0  0  0  0  0  0  0  0  0  0
   -2.6958   -0.6375    0.0000 C   0  0  3  0  0  0  0  0  0  0  0  0
    3.3542    0.5208    0.0000 C   0  0  0  0  0  0  0  0  0  0  0  0
    1.6542    1.9333    0.0000 S   0  0  0  0  0  0  0  0  0  0  0  0
    4.1875   -0.1875    0.0000 C   0  0  0  0  0  0  0  0  0  0  0  0
   -1.6500   -0.2542    0.0000 C   0  0  3  0  0  0  0  0  0  0  0  0
    0.2292   -0.6000    0.0000 C   0  0  0  0  0  0  0  0  0  0  0  0
   -0.4000    1.1958    0.0000 C   0  0  0  0  0  0  0  0  0  0  0  0
    5.2500    0.1958    0.0000 C   0  0  0  0  0  0  0  0  0  0  0  0
   -2.3125   -1.6667    0.0000 C   0  0  0  0  0  0  0  0  0  0  0  0
   -3.0625    0.3958    0.0000 C   0  0  0  0  0  0  0  0  0  0  0  0
    3.5500    1.6000    0.0000 C   0  0  0  0  0  0  0  0  0  0  0  0
   -1.4458    0.8208    0.0000 C   0  0  0  0  0  0  0  0  0  0  0  0
   -0.8000   -0.9667    0.0000 C   0  0  0  0  0  0  0  0  0  0  0  0
    5.4292    1.2625    0.0000 C   0  0  0  0  0  0  0  0  0  0  0  0
   -3.7208   -1.0042    0.0000 O   0  0  0  0  0  0  0  0  0  0  0  0
    4.6042    1.9833    0.0000 C   0  0  0  0  0  0  0  0  0  0  0  0
    6.4667    1.6458    0.0000 Cl  0  0  0  0  0  0  0  0  0  0  0  0
    3.9667   -1.2542    0.0000 C   0  0  0  0  0  0  0  0  0  0  0  0
   -4.1583    0.6000    0.0000 C   0  0  0  0  0  0  0  0  0  0  0  0
   -1.2208   -1.8792    0.0000 C   0  0  0  0  0  0  0  0  0  0  0  0
   -3.0208   -2.5292    0.0000 C   0  0  0  0  0  0  0  0  0  0  0  0
   -2.3500    1.2458    0.0000 C   0  0  0  0  0  0  0  0  0  0  0  0
   -0.8500   -2.9167    0.0000 C   0  0  0  0  0  0  0  0  0  0  0  0
   -2.6500   -3.5542    0.0000 C   0  0  0  0  0  0  0  0  0  0  0  0
   -2.7208    2.2833    0.0000 C   0  0  0  0  0  0  0  0  0  0  0  0
   -4.5208    1.6458    0.0000 C   0  0  0  0  0  0  0  0  0  0  0  0
   -3.8125    2.4958    0.0000 C   0  0  0  0  0  0  0  0  0  0  0  0
   -1.5625   -3.7667    0.0000 C   0  0  0  0  0  0  0  0  0  0  0  0
  2  1  1  0  0  0  0
  3  1  1  0  0  0  0
  4  8  1  0  0  0  0
  5  3  1  0  0  0  0
  6  1  2  0  0  0  0
  7  5  2  0  0  0  0
  8 15  1  0  0  0  0
  9  2  1  0  0  0  0
 10  2  1  0  0  0  0
 11  7  1  0  0  0  0
 12  4  1  0  0  0  0
 13  4  1  0  0  0  0
 14  5  1  0  0  0  0
 15 10  1  0  0  0  0
 16  9  1  0  0  0  0
 17 19  1  0  0  0  0
 18  4  1  0  0  0  0
 19 14  2  0  0  0  0
 20 17  1  0  0  0  0
 21  7  1  0  0  0  0
 22 13  1  0  0  0  0
 23 12  1  0  0  0  0
 24 12  2  0  0  0  0
 25 13  2  0  0  0  0
 26 23  2  0  0  0  0
 27 24  1  0  0  0  0
 28 25  1  0  0  0  0
 29 22  2  0  0  0  0
 30 28  2  0  0  0  0
 31 27  2  0  0  0  0
 16  8  1  0  0  0  0
 17 11  2  0  0  0  0
 29 30  1  0  0  0  0
 31 26  1  0  0  0  0
M  END
> <#>
1043

> <PLATE>
LAT014

> <ROW>
C

> <COL>
2

> <COORD>
C02

> <LATID>
LAT014C02

> <Supplier>
Chembridge

> <Suplier_CAT#>
7648666

> <Name>
Novel

> <Concentration_(mM)>
2.5

> <IC50_(µM)>
inactive

> <Yeast_Active?>
-

> <Pubchem_CID>
2196160

$$$$
