
  -ISIS-  08130814242D

 23 25  0  0  0  0  0  0  0  0999 V2000
    5.1625    2.3625    0.0000 C   0  0  0  0  0  0  0  0  0  0  0  0
    4.6542    2.9208    0.0000 C   0  0  0  0  0  0  0  0  0  0  0  0
    3.9750    2.6208    0.0000 C   0  0  0  0  0  0  0  0  0  0  0  0
    4.7875    1.7125    0.0000 C   0  0  0  0  0  0  0  0  0  0  0  0
    4.0542    1.8708    0.0000 O   0  0  0  0  0  0  0  0  0  0  0  0
    5.9125    2.3625    0.0000 C   0  0  0  0  0  0  0  0  0  0  0  0
    3.3250    2.9958    0.0000 C   0  0  0  0  0  0  0  0  0  0  0  0
    5.1625    1.0625    0.0000 C   0  0  0  0  0  0  0  0  0  0  0  0
    5.9125    1.0625    0.0000 C   0  0  3  0  0  0  0  0  0  0  0  0
    6.2875    1.7125    0.0000 C   0  0  0  0  0  0  0  0  0  0  0  0
    2.6750    2.6208    0.0000 N   0  0  0  0  0  0  0  0  0  0  0  0
    6.2875    3.0208    0.0000 O   0  0  0  0  0  0  0  0  0  0  0  0
    0.7292    2.9958    0.0000 N   0  0  0  0  0  0  0  0  0  0  0  0
    3.3250    3.7458    0.0000 O   0  0  0  0  0  0  0  0  0  0  0  0
    4.8167    3.6583    0.0000 C   0  0  0  0  0  0  0  0  0  0  0  0
    2.0250    2.9958    0.0000 C   0  0  0  0  0  0  0  0  0  0  0  0
    1.3750    2.6208    0.0000 C   0  0  0  0  0  0  0  0  0  0  0  0
    5.7792    0.3250    0.0000 C   0  0  0  0  0  0  0  0  0  0  0  0
    6.6167    0.8083    0.0000 C   0  0  0  0  0  0  0  0  0  0  0  0
    0.0792    2.6208    0.0000 C   0  0  0  0  0  0  0  0  0  0  0  0
    1.3750    1.8708    0.0000 C   0  0  0  0  0  0  0  0  0  0  0  0
    0.0792    1.8708    0.0000 C   0  0  0  0  0  0  0  0  0  0  0  0
    0.7292    1.4958    0.0000 C   0  0  0  0  0  0  0  0  0  0  0  0
  2  1  1  0  0  0  0
  3  2  2  0  0  0  0
  4  1  2  0  0  0  0
  5  4  1  0  0  0  0
  6  1  1  0  0  0  0
  7  3  1  0  0  0  0
  8  4  1  0  0  0  0
  9 10  1  0  0  0  0
 10  6  1  0  0  0  0
 11  7  1  0  0  0  0
 12  6  2  0  0  0  0
 13 17  2  0  0  0  0
 14  7  2  0  0  0  0
 15  2  1  0  0  0  0
 16 11  1  0  0  0  0
 17 16  1  0  0  0  0
 18  9  1  0  0  0  0
 19  9  1  0  0  0  0
 20 13  1  0  0  0  0
 21 17  1  0  0  0  0
 22 23  1  0  0  0  0
 23 21  2  0  0  0  0
  3  5  1  0  0  0  0
  8  9  1  0  0  0  0
 20 22  2  0  0  0  0
M  END
> <#>
1494

> <PLATE>
LAT019

> <ROW>
F

> <COL>
8

> <COORD>
F08

> <LATID>
LAT019F08

> <Supplier>
Chembridge

> <Suplier_CAT#>
7988330

> <Name>
Novel

> <Concentration_(mM)>
2.5

> <IC50_(µM)>
inactive

> <Yeast_Active?>
-

> <Pubchem_CID>
2983668

$$$$
