
  -ISIS-  08130814242D

 23 25  0  0  0  0  0  0  0  0999 V2000
    0.5125   -1.7292    0.0000 C   0  0  0  0  0  0  0  0  0  0  0  0
    0.5167   -2.5625    0.0000 C   0  0  0  0  0  0  0  0  0  0  0  0
   -2.3458   -3.3917    0.0000 C   0  0  0  0  0  0  0  0  0  0  0  0
    1.3042   -2.8167    0.0000 O   0  0  0  0  0  0  0  0  0  0  0  0
    1.3000   -1.4667    0.0000 C   0  0  0  0  0  0  0  0  0  0  0  0
   -0.2083   -2.9750    0.0000 C   0  0  0  0  0  0  0  0  0  0  0  0
   -1.6333   -2.9792    0.0000 O   0  0  0  0  0  0  0  0  0  0  0  0
   -0.2083   -1.3167    0.0000 C   0  0  0  0  0  0  0  0  0  0  0  0
   -3.0625   -2.9792    0.0000 C   0  0  0  0  0  0  0  0  0  0  0  0
   -0.9208   -2.5625    0.0000 C   0  0  0  0  0  0  0  0  0  0  0  0
    1.7917   -2.1417    0.0000 C   0  0  0  0  0  0  0  0  0  0  0  0
   -5.2083   -1.7417    0.0000 C   0  0  3  0  0  0  0  0  0  0  0  0
   -4.4833   -2.1542    0.0000 C   0  0  0  0  0  0  0  0  0  0  0  0
   -2.3458   -4.2167    0.0000 O   0  0  0  0  0  0  0  0  0  0  0  0
    1.5500   -0.6792    0.0000 O   0  0  0  0  0  0  0  0  0  0  0  0
   -3.0583   -2.1542    0.0000 C   0  0  0  0  0  0  0  0  0  0  0  0
   -3.7708   -3.3917    0.0000 C   0  0  0  0  0  0  0  0  0  0  0  0
   -4.4833   -2.9792    0.0000 C   0  0  0  0  0  0  0  0  0  0  0  0
   -3.7708   -1.7417    0.0000 C   0  0  0  0  0  0  0  0  0  0  0  0
   -0.9208   -1.7375    0.0000 C   0  0  0  0  0  0  0  0  0  0  0  0
   -5.2083   -0.9167    0.0000 C   0  0  0  0  0  0  0  0  0  0  0  0
   -5.9125   -2.1542    0.0000 C   0  0  0  0  0  0  0  0  0  0  0  0
   -4.6208   -1.1542    0.0000 C   0  0  0  0  0  0  0  0  0  0  0  0
  2  1  1  0  0  0  0
  3  7  1  0  0  0  0
  4  2  1  0  0  0  0
  5  1  1  0  0  0  0
  6  2  2  0  0  0  0
  7 10  1  0  0  0  0
  8  1  2  0  0  0  0
  9  3  1  0  0  0  0
 10 20  2  0  0  0  0
 11  5  1  0  0  0  0
 12 13  1  0  0  0  0
 13 18  1  0  0  0  0
 14  3  2  0  0  0  0
 15  5  2  0  0  0  0
 16  9  2  0  0  0  0
 17  9  1  0  0  0  0
 18 17  2  0  0  0  0
 19 16  1  0  0  0  0
 20  8  1  0  0  0  0
 21 12  1  0  0  0  0
 22 12  1  0  0  0  0
 23 12  1  0  0  0  0
  4 11  1  0  0  0  0
  6 10  1  0  0  0  0
 19 13  2  0  0  0  0
M  END
> <#>
1376

> <PLATE>
LAT018

> <ROW>
H

> <COL>
3

> <COORD>
H03

> <LATID>
LAT018H03

> <Supplier>
Chembridge

> <Suplier_CAT#>
7570344

> <Name>
Novel

> <Concentration_(mM)>
2.5

> <IC50_(µM)>
inactive

> <Yeast_Active?>
-

> <Pubchem_CID>
732047

$$$$
