
  -ISIS-  08130814242D

 23 25  0  0  0  0  0  0  0  0999 V2000
    3.2292    1.3500    0.0000 C   0  0  0  0  0  0  0  0  0  0  0  0
   -1.3125   -0.5500    0.0000 C   0  0  0  0  0  0  0  0  0  0  0  0
    3.7667    0.3625    0.0000 C   0  0  0  0  0  0  0  0  0  0  0  0
    2.0875    1.3833    0.0000 N   0  0  0  0  0  0  0  0  0  0  0  0
   -1.8833   -1.5042    0.0000 N   0  0  0  0  0  0  0  0  0  0  0  0
    3.4042   -0.7000    0.0000 S   0  0  0  0  0  0  0  0  0  0  0  0
   -0.1708   -0.5500    0.0000 C   0  0  0  0  0  0  0  0  0  0  0  0
    1.4875    0.4000    0.0000 C   0  0  0  0  0  0  0  0  0  0  0  0
    4.9000    0.3458    0.0000 C   0  0  0  0  0  0  0  0  0  0  0  0
    0.3792    0.4333    0.0000 C   0  0  0  0  0  0  0  0  0  0  0  0
    3.8042    2.3125    0.0000 O   0  0  0  0  0  0  0  0  0  0  0  0
   -1.8500    0.4333    0.0000 O   0  0  0  0  0  0  0  0  0  0  0  0
    4.3167   -1.3667    0.0000 C   0  0  0  0  0  0  0  0  0  0  0  0
    5.2375   -0.7292    0.0000 C   0  0  0  0  0  0  0  0  0  0  0  0
   -3.0208   -1.5042    0.0000 C   0  0  0  0  0  0  0  0  0  0  0  0
    0.3667   -1.5167    0.0000 C   0  0  0  0  0  0  0  0  0  0  0  0
    1.4875   -1.5375    0.0000 C   0  0  0  0  0  0  0  0  0  0  0  0
    2.0792   -0.5542    0.0000 C   0  0  0  0  0  0  0  0  0  0  0  0
   -3.5625   -0.5167    0.0000 C   0  0  0  0  0  0  0  0  0  0  0  0
   -3.6000   -2.4875    0.0000 C   0  0  0  0  0  0  0  0  0  0  0  0
   -4.7333   -2.4667    0.0000 C   0  0  0  0  0  0  0  0  0  0  0  0
   -4.6583   -0.4875    0.0000 C   0  0  0  0  0  0  0  0  0  0  0  0
   -5.2708   -1.4542    0.0000 C   0  0  0  0  0  0  0  0  0  0  0  0
  2  7  1  0  0  0  0
  3  1  1  0  0  0  0
  4  1  1  0  0  0  0
  5  2  1  0  0  0  0
  6  3  1  0  0  0  0
  7 10  2  0  0  0  0
  8  4  1  0  0  0  0
  9  3  2  0  0  0  0
 10  8  1  0  0  0  0
 11  1  2  0  0  0  0
 12  2  2  0  0  0  0
 13  6  1  0  0  0  0
 14  9  1  0  0  0  0
 15  5  1  0  0  0  0
 16 17  2  0  0  0  0
 17 18  1  0  0  0  0
 18  8  2  0  0  0  0
 19 15  1  0  0  0  0
 20 15  2  0  0  0  0
 21 20  1  0  0  0  0
 22 19  2  0  0  0  0
 23 21  2  0  0  0  0
 14 13  2  0  0  0  0
  7 16  1  0  0  0  0
 22 23  1  0  0  0  0
M  END
> <#>
1973

> <PLATE>
LAT025

> <ROW>
E

> <COL>
8

> <COORD>
E08

> <LATID>
LAT025E08

> <Supplier>
Chembridge

> <Suplier_CAT#>
6629922

> <Concentration_(mM)>
2.5

> <IC50_(µM)>
inactive

> <Yeast_Active?>
-

> <Pubchem_CID>
3525974

$$$$
