
  -ISIS-  08130814242D

 19 19  0  0  0  0  0  0  0  0999 V2000
    3.2875   -2.4917    0.0000 C   0  0  3  0  0  0  0  0  0  0  0  0
    3.2875   -3.3167    0.0000 C   0  0  0  0  0  0  0  0  0  0  0  0
    2.5750   -2.0792    0.0000 C   0  0  3  0  0  0  0  0  0  0  0  0
    4.0000   -2.0875    0.0000 C   0  0  0  0  0  0  0  0  0  0  0  0
    2.5750   -3.7292    0.0000 C   0  0  0  0  0  0  0  0  0  0  0  0
    1.8667   -3.3167    0.0000 C   0  0  0  0  0  0  0  0  0  0  0  0
    4.7125   -2.5000    0.0000 C   0  0  0  0  0  0  0  0  0  0  0  0
    6.1375   -2.5042    0.0000 C   0  0  0  0  0  0  0  0  0  0  0  0
    6.1292   -3.3292    0.0000 C   0  0  0  0  0  0  0  0  0  0  0  0
    1.8667   -2.4917    0.0000 C   0  0  0  0  0  0  0  0  0  0  0  0
    5.4250   -2.0917    0.0000 C   0  0  0  0  0  0  0  0  0  0  0  0
    1.1500   -3.7292    0.0000 O   0  0  0  0  0  0  0  0  0  0  0  0
    5.4167   -3.7375    0.0000 O   0  0  0  0  0  0  0  0  0  0  0  0
    3.2792   -1.6667    0.0000 O   0  0  0  0  0  0  0  0  0  0  0  0
    6.8417   -3.7417    0.0000 O   0  0  0  0  0  0  0  0  0  0  0  0
    4.0042   -3.7292    0.0000 C   0  0  0  0  0  0  0  0  0  0  0  0
    2.1542   -1.3625    0.0000 C   0  0  0  0  0  0  0  0  0  0  0  0
    2.7875   -1.2792    0.0000 C   0  0  0  0  0  0  0  0  0  0  0  0
    5.4250   -1.2667    0.0000 C   0  0  0  0  0  0  0  0  0  0  0  0
  2  1  1  0  0  0  0
  3  1  1  0  0  0  0
  4  1  1  0  0  0  0
  5  2  2  0  0  0  0
  6 10  1  0  0  0  0
  7  4  2  0  0  0  0
  8 11  2  0  0  0  0
  9  8  1  0  0  0  0
 10  3  1  0  0  0  0
 11  7  1  0  0  0  0
 12  6  2  0  0  0  0
 13  9  2  0  0  0  0
 14  1  1  0  0  0  0
 15  9  1  0  0  0  0
 16  2  1  0  0  0  0
 17  3  1  0  0  0  0
 18  3  1  0  0  0  0
 19 11  1  0  0  0  0
  5  6  1  0  0  0  0
M  END
> <#>
34

> <PLATE>
LAT001

> <ROW>
B

> <COL>
6

> <COORD>
B06

> <LATID>
LAT001B06

> <Supplier>
Microsource

> <Suplier_CAT#>
01502234

> <Name>
Abscisic Acid (Cis,Trans; +/-)

> <Concentration_(mM)>
2.5

> <IC50_(µM)>
0.048

> <Yeast_Active?>
-

> <Pubchem_CID>
287291

$$$$
