
  -ISIS-  08130814242D

 21 24  0  0  0  0  0  0  0  0999 V2000
   -0.4208   -0.1167    0.0000 C   0  0  3  0  0  0  0  0  0  0  0  0
   -1.4208   -0.2792    0.0000 C   0  0  0  0  0  0  0  0  0  0  0  0
    0.9000   -0.5667    0.0000 N   0  0  3  0  0  0  0  0  0  0  0  0
    0.2875    0.6708    0.0000 N   0  0  3  0  0  0  0  0  0  0  0  0
   -1.7625    1.4500    0.0000 N   0  3  0  0  0  0  0  0  0  0  0  0
   -2.0958    0.4958    0.0000 C   0  0  0  0  0  0  0  0  0  0  0  0
    0.9000    1.0500    0.0000 C   0  0  3  0  0  0  0  0  0  0  0  0
    2.3042    0.2458    0.0000 C   0  0  3  0  0  0  0  0  0  0  0  0
    1.4500    0.6708    0.0000 C   0  0  0  0  0  0  0  0  0  0  0  0
   -0.1458    1.4958    0.0000 C   0  0  0  0  0  0  0  0  0  0  0  0
    1.8375   -0.5667    0.0000 C   0  0  0  0  0  0  0  0  0  0  0  0
    0.4292    0.2458    0.0000 C   0  0  0  0  0  0  0  0  0  0  0  0
    1.8375    1.0500    0.0000 C   0  0  0  0  0  0  0  0  0  0  0  0
   -0.7625    1.6333    0.0000 O   0  5  0  0  0  0  0  0  0  0  0  0
   -2.4458    2.1958    0.0000 O   0  0  0  0  0  0  0  0  0  0  0  0
   -1.7708   -1.2167    0.0000 C   0  0  0  0  0  0  0  0  0  0  0  0
    0.4667    2.0708    0.0000 C   0  0  0  0  0  0  0  0  0  0  0  0
    3.2875    0.0125    0.0000 C   0  0  0  0  0  0  0  0  0  0  0  0
   -3.0958    0.3000    0.0000 C   0  0  0  0  0  0  0  0  0  0  0  0
   -2.7708   -1.4042    0.0000 C   0  0  0  0  0  0  0  0  0  0  0  0
   -3.4458   -0.6500    0.0000 C   0  0  0  0  0  0  0  0  0  0  0  0
  2  1  1  0  0  0  0
  3  1  1  0  0  0  0
  4  1  1  0  0  0  0
  5  6  1  0  0  0  0
  6  2  2  0  0  0  0
  7 10  1  0  0  0  0
  8  9  1  0  0  0  0
  9  4  1  0  0  0  0
 10  4  1  0  0  0  0
 11  3  1  0  0  0  0
 12  3  1  0  0  0  0
 13  7  1  0  0  0  0
 14  5  1  0  0  0  0
 15  5  2  0  0  0  0
 16  2  1  0  0  0  0
 17  7  1  0  0  0  0
 18  8  1  0  0  0  0
 19  6  1  0  0  0  0
 20 16  2  0  0  0  0
 21 20  1  0  0  0  0
 12  7  1  0  0  0  0
 11  8  1  0  0  0  0
  8 13  1  0  0  0  0
 19 21  2  0  0  0  0
M  CHG  2   5   1  14  -1
M  END
> <#>
2010

> <PLATE>
LAT026

> <ROW>
B

> <COL>
3

> <COORD>
B03

> <LATID>
LAT026B03

> <Supplier>
Chembridge

> <Suplier_CAT#>
5647619

> <Sec_Name>
198_D02

> <Concentration_(mM)>
2.5

> <IC50_(µM)>
inactive

> <Yeast_Active?>
-

> <Pubchem_CID>
NULL

$$$$
