
  -ISIS-  08130814242D

 29 32  0  0  0  0  0  0  0  0999 V2000
    4.6042  -14.8875    0.0000 N   0  0  0  0  0  0  0  0  0  0  0  0
    4.1042  -14.5667    0.0000 C   0  0  0  0  0  0  0  0  0  0  0  0
    5.1250  -14.6167    0.0000 C   0  0  0  0  0  0  0  0  0  0  0  0
    4.1292  -13.9792    0.0000 N   0  0  0  0  0  0  0  0  0  0  0  0
    5.1500  -14.0292    0.0000 C   0  0  0  0  0  0  0  0  0  0  0  0
    4.6542  -13.7125    0.0000 C   0  0  0  0  0  0  0  0  0  0  0  0
    5.6167  -14.9292    0.0000 S   0  0  0  0  0  0  0  0  0  0  0  0
    3.5875  -14.8417    0.0000 C   0  0  0  0  0  0  0  0  0  0  0  0
    7.1542  -14.7000    0.0000 C   0  0  0  0  0  0  0  0  0  0  0  0
    7.6542  -15.0167    0.0000 C   0  0  0  0  0  0  0  0  0  0  0  0
    8.1750  -14.7417    0.0000 C   0  0  0  0  0  0  0  0  0  0  0  0
    6.6375  -14.9667    0.0000 C   0  0  0  0  0  0  0  0  0  0  0  0
    8.1917  -14.1542    0.0000 C   0  0  0  0  0  0  0  0  0  0  0  0
    6.1417  -14.6542    0.0000 C   0  0  0  0  0  0  0  0  0  0  0  0
    3.0917  -14.5167    0.0000 C   0  0  0  0  0  0  0  0  0  0  0  0
    7.1792  -14.1125    0.0000 C   0  0  0  0  0  0  0  0  0  0  0  0
    6.6125  -15.5542    0.0000 O   0  0  0  0  0  0  0  0  0  0  0  0
    7.7000  -13.8417    0.0000 C   0  0  0  0  0  0  0  0  0  0  0  0
    8.6667  -15.0542    0.0000 O   0  0  0  0  0  0  0  0  0  0  0  0
    2.5667  -14.7917    0.0000 C   0  0  0  0  0  0  0  0  0  0  0  0
    8.7167  -13.8792    0.0000 O   0  0  0  0  0  0  0  0  0  0  0  0
    5.6667  -13.7542    0.0000 C   0  0  0  0  0  0  0  0  0  0  0  0
    4.6667  -13.1292    0.0000 C   0  0  0  0  0  0  0  0  0  0  0  0
    3.5625  -15.4250    0.0000 C   0  0  0  0  0  0  0  0  0  0  0  0
    3.0417  -15.6917    0.0000 C   0  0  0  0  0  0  0  0  0  0  0  0
    2.5417  -15.3792    0.0000 C   0  0  0  0  0  0  0  0  0  0  0  0
    2.0667  -14.4750    0.0000 C   0  0  0  0  0  0  0  0  0  0  0  0
    5.6875  -13.1667    0.0000 C   0  0  0  0  0  0  0  0  0  0  0  0
    5.1875  -12.8542    0.0000 C   0  0  0  0  0  0  0  0  0  0  0  0
  2  1  1  0  0  0  0
  3  1  2  0  0  0  0
  4  2  2  0  0  0  0
  5  3  1  0  0  0  0
  6  5  2  0  0  0  0
  7  3  1  0  0  0  0
  8  2  1  0  0  0  0
  9 12  1  0  0  0  0
 10  9  2  0  0  0  0
 11 10  1  0  0  0  0
 12 14  1  0  0  0  0
 13 18  1  0  0  0  0
 14  7  1  0  0  0  0
 15  8  2  0  0  0  0
 16  9  1  0  0  0  0
 17 12  2  0  0  0  0
 18 16  2  0  0  0  0
 19 11  1  0  0  0  0
 20 15  1  0  0  0  0
 21 13  1  0  0  0  0
 22  5  1  0  0  0  0
 23  6  1  0  0  0  0
 24  8  1  0  0  0  0
 25 24  2  0  0  0  0
 26 25  1  0  0  0  0
 27 20  1  0  0  0  0
 28 22  1  0  0  0  0
 29 28  1  0  0  0  0
  4  6  1  0  0  0  0
 23 29  1  0  0  0  0
 26 20  2  0  0  0  0
 13 11  2  0  0  0  0
M  END
> <#>
1379

> <PLATE>
LAT018

> <ROW>
C

> <COL>
4

> <COORD>
C04

> <LATID>
LAT018C04

> <Supplier>
Chembridge

> <Suplier_CAT#>
7642884

> <Name>
Novel

> <Concentration_(mM)>
2.5

> <IC50_(µM)>
inactive

> <Yeast_Active?>
+

> <Pubchem_CID>
1305489

$$$$
