
  -ISIS-  08130814242D

 19 20  0  0  0  0  0  0  0  0999 V2000
   -2.8500    0.6458    0.0000 C   0  0  0  0  0  0  0  0  0  0  0  0
   -2.0458    0.1708    0.0000 C   0  0  0  0  0  0  0  0  0  0  0  0
   -2.8500    1.5833    0.0000 C   0  0  0  0  0  0  0  0  0  0  0  0
   -3.6625    0.1708    0.0000 C   0  0  0  0  0  0  0  0  0  0  0  0
   -3.6625    2.0500    0.0000 C   0  0  0  0  0  0  0  0  0  0  0  0
   -4.4708    1.5833    0.0000 C   0  0  0  0  0  0  0  0  0  0  0  0
   -4.4708    0.6458    0.0000 C   0  0  0  0  0  0  0  0  0  0  0  0
   -1.2333    0.6458    0.0000 C   0  0  0  0  0  0  0  0  0  0  0  0
   -2.0458   -0.6500    0.0000 O   0  0  0  0  0  0  0  0  0  0  0  0
   -2.0458    2.0500    0.0000 O   0  0  0  0  0  0  0  0  0  0  0  0
   -5.1333    2.0500    0.0000 O   0  0  0  0  0  0  0  0  0  0  0  0
   -0.4208    0.1708    0.0000 C   0  0  0  0  0  0  0  0  0  0  0  0
   -5.4208    0.2958    0.0000 C   0  0  0  0  0  0  0  0  0  0  0  0
   -0.4208   -0.7542    0.0000 C   0  0  0  0  0  0  0  0  0  0  0  0
    0.4000    0.6458    0.0000 C   0  0  0  0  0  0  0  0  0  0  0  0
   -5.4083   -0.6500    0.0000 C   0  0  0  0  0  0  0  0  0  0  0  0
    0.3792   -1.2500    0.0000 C   0  0  0  0  0  0  0  0  0  0  0  0
    1.2042    0.1708    0.0000 C   0  0  0  0  0  0  0  0  0  0  0  0
    1.2042   -0.7667    0.0000 C   0  0  0  0  0  0  0  0  0  0  0  0
  2  1  1  0  0  0  0
  3  1  2  0  0  0  0
  4  1  1  0  0  0  0
  5  3  1  0  0  0  0
  6  7  1  0  0  0  0
  7  4  2  0  0  0  0
  8  2  1  0  0  0  0
  9  2  2  0  0  0  0
 10  3  1  0  0  0  0
 11  6  1  0  0  0  0
 12  8  1  0  0  0  0
 13  7  1  0  0  0  0
 14 12  1  0  0  0  0
 15 12  2  0  0  0  0
 16 13  1  0  0  0  0
 17 14  2  0  0  0  0
 18 15  1  0  0  0  0
 19 18  2  0  0  0  0
  6  5  2  0  0  0  0
 19 17  1  0  0  0  0
M  END
> <#>
1272

> <PLATE>
LAT016

> <ROW>
H

> <COL>
10

> <COORD>
H10

> <LATID>
LAT016H10

> <Supplier>
Chembridge

> <Suplier_CAT#>
6652118

> <Name>
Novel

> <Concentration_(mM)>
2.5

> <IC50_(µM)>
80

> <Yeast_Active?>
-

> <Pubchem_CID>
853076

$$$$
