
  -ISIS-  08130814242D

 29 31  0  0  0  0  0  0  0  0999 V2000
   17.5144   -5.3087    0.0000 C   0  0  0  0  0  0  0  0  0  0  0  0
   16.2644   -5.3087    0.0000 C   0  0  0  0  0  0  0  0  0  0  0  0
   15.6394   -6.3912    0.0000 O   0  0  0  0  0  0  0  0  0  0  0  0
   15.6394   -4.2262    0.0000 N   0  0  0  0  0  0  0  0  0  0  0  0
   14.3894   -4.2262    0.0000 C   0  0  1  0  0  0  0  0  0  0  0  0
   13.8471   -5.3524    0.0000 C   0  0  0  0  0  0  0  0  0  0  0  0
   12.6284   -5.6305    0.0000 C   0  0  0  0  0  0  0  0  0  0  0  0
   11.6511   -4.8512    0.0000 C   0  0  0  0  0  0  0  0  0  0  0  0
   10.5686   -5.4762    0.0000 C   0  0  0  0  0  0  0  0  0  0  0  0
    9.4861   -4.8512    0.0000 C   0  0  0  0  0  0  0  0  0  0  0  0
    9.4861   -3.6012    0.0000 C   0  0  0  0  0  0  0  0  0  0  0  0
   10.5686   -2.9762    0.0000 C   0  0  0  0  0  0  0  0  0  0  0  0
   11.6511   -3.6012    0.0000 C   0  0  0  0  0  0  0  0  0  0  0  0
   12.6284   -2.8218    0.0000 C   0  0  0  0  0  0  0  0  0  0  0  0
   12.0861   -1.6956    0.0000 C   0  0  0  0  0  0  0  0  0  0  0  0
   12.6284   -0.5694    0.0000 C   0  0  0  0  0  0  0  0  0  0  0  0
   13.8471   -0.2912    0.0000 C   0  0  0  0  0  0  0  0  0  0  0  0
   14.8244   -1.0706    0.0000 C   0  0  0  0  0  0  0  0  0  0  0  0
   15.9506   -0.5283    0.0000 O   0  0  0  0  0  0  0  0  0  0  0  0
   14.8244   -2.3206    0.0000 C   0  0  0  0  0  0  0  0  0  0  0  0
   13.8471   -3.1000    0.0000 C   0  0  0  0  0  0  0  0  0  0  0  0
   14.1252    0.9274    0.0000 O   0  0  0  0  0  0  0  0  0  0  0  0
   15.3197    1.2959    0.0000 C   0  0  0  0  0  0  0  0  0  0  0  0
   10.5686   -1.7262    0.0000 O   0  0  0  0  0  0  0  0  0  0  0  0
    9.4861   -1.1012    0.0000 C   0  0  0  0  0  0  0  0  0  0  0  0
    8.4035   -2.9762    0.0000 O   0  0  0  0  0  0  0  0  0  0  0  0
    7.3210   -3.6012    0.0000 C   0  0  0  0  0  0  0  0  0  0  0  0
    8.4035   -5.4762    0.0000 O   0  0  0  0  0  0  0  0  0  0  0  0
    8.4035   -6.7262    0.0000 C   0  0  0  0  0  0  0  0  0  0  0  0
  1  2  1  0  0  0  0
  2  3  2  0  0  0  0
  2  4  1  0  0  0  0
  5  4  1  1  0  0  0
  5  6  1  0  0  0  0
  6  7  1  0  0  0  0
  7  8  1  0  0  0  0
  8  9  2  0  0  0  0
  9 10  1  0  0  0  0
 10 11  2  0  0  0  0
 11 12  1  0  0  0  0
 12 13  2  0  0  0  0
  8 13  1  0  0  0  0
 13 14  1  0  0  0  0
 14 15  2  0  0  0  0
 15 16  1  0  0  0  0
 16 17  2  0  0  0  0
 17 18  1  0  0  0  0
 18 19  2  0  0  0  0
 18 20  1  0  0  0  0
 20 21  2  0  0  0  0
  5 21  1  0  0  0  0
 14 21  1  0  0  0  0
 17 22  1  0  0  0  0
 22 23  1  0  0  0  0
 12 24  1  0  0  0  0
 24 25  1  0  0  0  0
 11 26  1  0  0  0  0
 26 27  1  0  0  0  0
 10 28  1  0  0  0  0
 28 29  1  0  0  0  0
M  END
> <#>
319

> <PLATE>
LAT004

> <ROW>
G

> <COL>
11

> <COORD>
G11

> <LATID>
LAT004G11

> <Supplier>
Sigma

> <Suplier_CAT#>
C-9754

> <Name>
Colchicine

> <Concentration_(mM)>
2.5

> <IC50_(µM)>
88

> <Yeast_Active?>
-

> <Pubchem_CID>
2833

$$$$
