
  -ISIS-  08130814242D

 19 20  0  0  0  0  0  0  0  0999 V2000
    6.3542   -3.0250    0.0000 C   0  0  0  0  0  0  0  0  0  0  0  0
    7.0542   -3.4292    0.0000 C   0  0  0  0  0  0  0  0  0  0  0  0
    5.6542   -3.4250    0.0000 C   0  0  0  0  0  0  0  0  0  0  0  0
    6.3542   -2.2125    0.0000 C   0  0  0  0  0  0  0  0  0  0  0  0
    9.9375   -3.3917    0.0000 C   0  0  0  0  0  0  0  0  0  0  0  0
    7.0500   -4.3167    0.0000 O   0  0  0  0  0  0  0  0  0  0  0  0
    4.9500   -3.0125    0.0000 C   0  0  0  0  0  0  0  0  0  0  0  0
    5.6625   -1.8000    0.0000 C   0  0  0  0  0  0  0  0  0  0  0  0
    7.8292   -2.9792    0.0000 N   0  0  0  0  0  0  0  0  0  0  0  0
    9.9292   -4.2125    0.0000 C   0  0  0  0  0  0  0  0  0  0  0  0
    4.9542   -2.2042    0.0000 C   0  0  0  0  0  0  0  0  0  0  0  0
    8.5250   -3.3917    0.0000 C   0  0  0  0  0  0  0  0  0  0  0  0
    9.2375   -2.9792    0.0000 C   0  0  0  0  0  0  0  0  0  0  0  0
   10.6417   -3.0000    0.0000 C   0  0  0  0  0  0  0  0  0  0  0  0
    4.2292   -3.4167    0.0000 C   0  0  0  0  0  0  0  0  0  0  0  0
    5.6667   -0.9750    0.0000 C   0  0  0  0  0  0  0  0  0  0  0  0
   10.6292   -4.6250    0.0000 C   0  0  0  0  0  0  0  0  0  0  0  0
   11.3417   -3.4125    0.0000 C   0  0  0  0  0  0  0  0  0  0  0  0
   11.3375   -4.2250    0.0000 C   0  0  0  0  0  0  0  0  0  0  0  0
  2  1  1  0  0  0  0
  3  1  1  0  0  0  0
  4  1  2  0  0  0  0
  5 13  1  0  0  0  0
  6  2  2  0  0  0  0
  7  3  2  0  0  0  0
  8  4  1  0  0  0  0
  9  2  1  0  0  0  0
 10  5  2  0  0  0  0
 11  8  2  0  0  0  0
 12  9  1  0  0  0  0
 13 12  1  0  0  0  0
 14  5  1  0  0  0  0
 15  7  1  0  0  0  0
 16  8  1  0  0  0  0
 17 10  1  0  0  0  0
 18 14  1  0  0  0  0
 19 18  1  0  0  0  0
 11  7  1  0  0  0  0
 17 19  1  0  0  0  0
M  END
> <#>
1094

> <PLATE>
LAT014

> <ROW>
F

> <COL>
8

> <COORD>
F08

> <LATID>
LAT014F08

> <Supplier>
Chembridge

> <Suplier_CAT#>
7730271

> <Name>
Novel

> <Concentration_(mM)>
2.5

> <IC50_(µM)>
7.3

> <Yeast_Active?>
-

> <Pubchem_CID>
912609

$$$$
