
  -ISIS-  08130814242D

 15 15  0  0  0  0  0  0  0  0999 V2000
    7.4792    0.9583    0.0000 C   0  0  0  0  0  0  0  0  0  0  0  0
    6.8292    0.5833    0.0000 N   0  0  0  0  0  0  0  0  0  0  0  0
    8.1292    0.5833    0.0000 N   0  0  3  0  0  0  0  0  0  0  0  0
    7.4792    1.7083    0.0000 O   0  0  0  0  0  0  0  0  0  0  0  0
    4.8875    0.9583    0.0000 N   0  0  0  0  0  0  0  0  0  0  0  0
    6.1792    0.9583    0.0000 C   0  0  0  0  0  0  0  0  0  0  0  0
    5.5292    0.5833    0.0000 C   0  0  0  0  0  0  0  0  0  0  0  0
    8.7792    0.9583    0.0000 C   0  0  0  0  0  0  0  0  0  0  0  0
    8.1292   -0.1667    0.0000 C   0  0  0  0  0  0  0  0  0  0  0  0
    4.2375    0.5833    0.0000 C   0  0  0  0  0  0  0  0  0  0  0  0
    5.5292   -0.1667    0.0000 C   0  0  0  0  0  0  0  0  0  0  0  0
    9.4292    0.5833    0.0000 C   0  0  0  0  0  0  0  0  0  0  0  0
    8.7792   -0.5417    0.0000 C   0  0  0  0  0  0  0  0  0  0  0  0
    4.2375   -0.1667    0.0000 C   0  0  0  0  0  0  0  0  0  0  0  0
    4.8875   -0.5417    0.0000 C   0  0  0  0  0  0  0  0  0  0  0  0
  2  1  1  0  0  0  0
  3  1  1  0  0  0  0
  4  1  2  0  0  0  0
  5  7  1  0  0  0  0
  6  2  1  0  0  0  0
  7  6  1  0  0  0  0
  8  3  1  0  0  0  0
  9  3  1  0  0  0  0
 10  5  2  0  0  0  0
 11  7  2  0  0  0  0
 12  8  1  0  0  0  0
 13  9  1  0  0  0  0
 14 15  2  0  0  0  0
 15 11  1  0  0  0  0
 10 14  1  0  0  0  0
M  END
> <#>
1436

> <PLATE>
LAT018

> <ROW>
D

> <COL>
11

> <COORD>
D11

> <LATID>
LAT018D11

> <Supplier>
Chembridge

> <Suplier_CAT#>
9004490

> <Name>
Novel

> <Concentration_(mM)>
2.5

> <IC50_(µM)>
inactive

> <Yeast_Active?>
-

> <Pubchem_CID>
2990894

$$$$
