
  -ISIS-  08130814242D

 19 20  0  0  0  0  0  0  0  0999 V2000
    5.2417    3.6208    0.0000 C   0  0  0  0  0  0  0  0  0  0  0  0
    4.8667    2.9708    0.0000 C   0  0  0  0  0  0  0  0  0  0  0  0
    3.7417    2.3208    0.0000 C   0  0  0  0  0  0  0  0  0  0  0  0
    4.1167    2.9708    0.0000 C   0  0  0  0  0  0  0  0  0  0  0  0
    2.9917    2.3208    0.0000 N   0  0  0  0  0  0  0  0  0  0  0  0
    4.1167    1.6708    0.0000 C   0  0  0  0  0  0  0  0  0  0  0  0
    1.4917    3.6208    0.0000 N   0  0  0  0  0  0  0  0  0  0  0  0
    5.9917    3.6208    0.0000 O   0  0  0  0  0  0  0  0  0  0  0  0
    5.2417    2.3208    0.0000 C   0  0  0  0  0  0  0  0  0  0  0  0
    4.8667    1.6708    0.0000 C   0  0  0  0  0  0  0  0  0  0  0  0
    2.6167    2.9708    0.0000 C   0  0  0  0  0  0  0  0  0  0  0  0
    1.8667    2.9708    0.0000 C   0  0  0  0  0  0  0  0  0  0  0  0
    4.8667    4.2667    0.0000 O   0  0  0  0  0  0  0  0  0  0  0  0
    3.7417    1.0208    0.0000 O   0  0  0  0  0  0  0  0  0  0  0  0
    0.7417    3.6208    0.0000 C   0  0  0  0  0  0  0  0  0  0  0  0
    1.4917    2.3208    0.0000 C   0  0  0  0  0  0  0  0  0  0  0  0
    4.1167    0.3708    0.0000 C   0  0  0  0  0  0  0  0  0  0  0  0
    0.3667    2.9708    0.0000 C   0  0  0  0  0  0  0  0  0  0  0  0
    0.7417    2.3208    0.0000 C   0  0  0  0  0  0  0  0  0  0  0  0
  2  1  1  0  0  0  0
  3  4  2  0  0  0  0
  4  2  1  0  0  0  0
  5  3  1  0  0  0  0
  6 10  2  0  0  0  0
  7 12  2  0  0  0  0
  8  1  2  0  0  0  0
  9  2  2  0  0  0  0
 10  9  1  0  0  0  0
 11  5  1  0  0  0  0
 12 11  1  0  0  0  0
 13  1  1  0  0  0  0
 14  6  1  0  0  0  0
 15  7  1  0  0  0  0
 16 12  1  0  0  0  0
 17 14  1  0  0  0  0
 18 19  1  0  0  0  0
 19 16  2  0  0  0  0
  3  6  1  0  0  0  0
 18 15  2  0  0  0  0
M  END
> <#>
1419

> <PLATE>
LAT018

> <ROW>
C

> <COL>
9

> <COORD>
C09

> <LATID>
LAT018C09

> <Supplier>
Chembridge

> <Suplier_CAT#>
9058693

> <Name>
Novel

> <Concentration_(mM)>
2.5

> <IC50_(µM)>
inactive

> <Yeast_Active?>
-

> <Pubchem_CID>
5200388

$$$$
