
  -ISIS-  08130814242D

 17 18  0  0  0  0  0  0  0  0999 V2000
   -1.8625    0.2708    0.0000 N   0  3  0  0  0  0  0  0  0  0  0  0
   -1.5625    0.7500    0.0000 C   0  0  0  0  0  0  0  0  0  0  0  0
   -0.9833    0.7500    0.0000 C   0  0  0  0  0  0  0  0  0  0  0  0
   -1.8208    1.2333    0.0000 C   0  0  0  0  0  0  0  0  0  0  0  0
   -2.4208    0.3125    0.0000 O   0  5  0  0  0  0  0  0  0  0  0  0
   -1.6000   -0.2292    0.0000 O   0  0  0  0  0  0  0  0  0  0  0  0
   -1.5458    1.7125    0.0000 C   0  0  0  0  0  0  0  0  0  0  0  0
   -0.7208    1.2333    0.0000 C   0  0  0  0  0  0  0  0  0  0  0  0
   -1.8208    2.1958    0.0000 C   0  0  0  0  0  0  0  0  0  0  0  0
   -1.0000    1.7125    0.0000 C   0  0  0  0  0  0  0  0  0  0  0  0
   -0.6833    0.2708    0.0000 O   0  0  0  0  0  0  0  0  0  0  0  0
   -2.3833    2.1958    0.0000 C   0  0  0  0  0  0  0  0  0  0  0  0
   -2.6625    1.7125    0.0000 C   0  0  0  0  0  0  0  0  0  0  0  0
   -2.6625    2.6708    0.0000 C   0  0  0  0  0  0  0  0  0  0  0  0
   -3.2208    1.7125    0.0000 C   0  0  0  0  0  0  0  0  0  0  0  0
   -3.2208    2.6708    0.0000 C   0  0  0  0  0  0  0  0  0  0  0  0
   -3.5000    2.1958    0.0000 C   0  0  0  0  0  0  0  0  0  0  0  0
  2  1  1  0  0  0  0
  3  2  1  0  0  0  0
  4  2  2  0  0  0  0
  5  1  1  0  0  0  0
  6  1  2  0  0  0  0
  7  4  1  0  0  0  0
  8  3  2  0  0  0  0
  9  7  1  0  0  0  0
 10  7  2  0  0  0  0
 11  3  1  0  0  0  0
 12  9  1  0  0  0  0
 13 12  1  0  0  0  0
 14 12  2  0  0  0  0
 15 13  2  0  0  0  0
 16 14  1  0  0  0  0
 17 16  2  0  0  0  0
  8 10  1  0  0  0  0
 15 17  1  0  0  0  0
M  CHG  2   1   1   5  -1
M  END
> <#>
1056

> <PLATE>
LAT014

> <ROW>
H

> <COL>
3

> <COORD>
H03

> <LATID>
LAT014H03

> <Supplier>
Chembridge

> <Suplier_CAT#>
5142570

> <Name>
Novel

> <Concentration_(mM)>
2.5

> <IC50_(µM)>
>100

> <Yeast_Active?>
-

> <Pubchem_CID>
786374

$$$$
