
  -ISIS-  08130814242D

 28 30  0  0  0  0  0  0  0  0999 V2000
   -4.1148    0.9029    0.0000 C   0  0  1  0  0  0  0  0  0  0  0  0
   -4.8874    1.3493    0.0000 O   0  0  0  0  0  0  0  0  0  0  0  0
   -4.1151    0.0106    0.0000 C   0  0  0  0  0  0  0  0  0  0  0  0
   -3.3425   -0.4359    0.0000 C   0  0  0  0  0  0  0  0  0  0  0  0
   -3.3419    1.3488    0.0000 C   0  0  0  0  0  0  0  0  0  0  0  0
   -2.5693    0.9023    0.0000 C   0  0  0  0  0  0  0  0  0  0  0  0
   -1.7963    1.3482    0.0000 C   0  0  0  0  0  0  0  0  0  0  0  0
   -1.0237    0.9018    0.0000 C   0  0  0  0  0  0  0  0  0  0  0  0
   -0.2508    1.3477    0.0000 C   0  0  0  0  0  0  0  0  0  0  0  0
    0.5218    0.9013    0.0000 C   0  0  3  0  0  0  0  0  0  0  0  0
    0.7070    0.0284    0.0000 C   0  0  0  0  0  0  0  0  0  0  0  0
    1.5944   -0.0652    0.0000 C   0  0  0  0  0  0  0  0  0  0  0  0
    1.9577    0.7498    0.0000 C   0  0  2  0  0  0  0  0  0  0  0  0
    2.8305    0.9351    0.0000 C   0  0  1  0  0  0  0  0  0  0  0  0
    3.3919    0.2414    0.0000 C   0  0  0  0  0  0  0  0  0  0  0  0
    4.2732    0.3807    0.0000 C   0  0  0  0  0  0  0  0  0  0  0  0
    4.8345   -0.3130    0.0000 C   0  0  0  0  0  0  0  0  0  0  0  0
    5.7159   -0.1737    0.0000 C   0  0  3  0  0  0  0  0  0  0  0  0
    6.2772   -0.8674    0.0000 C   0  0  0  0  0  0  0  0  0  0  0  0
    6.0360    0.6592    0.0000 C   0  0  0  0  0  0  0  0  0  0  0  0
    3.1506    1.7680    0.0000 C   0  0  0  0  0  0  0  0  0  0  0  0
    1.2947    1.3471    0.0000 C   0  0  2  0  0  0  0  0  0  0  0  0
    2.1100    1.7098    0.0000 C   0  0  0  0  0  0  0  0  0  0  0  0
    1.2951    2.2395    0.0000 C   0  0  0  0  0  0  0  0  0  0  0  0
    0.5224    2.6859    0.0000 C   0  0  0  0  0  0  0  0  0  0  0  0
   -0.2505    2.2400    0.0000 C   0  0  0  0  0  0  0  0  0  0  0  0
   -2.5696    0.0100    0.0000 C   0  0  0  0  0  0  0  0  0  0  0  0
   -1.7970   -0.4364    0.0000 C   0  0  0  0  0  0  0  0  0  0  0  0
  1  2  1  6  0  0  0
  1  3  1  0  0  0  0
  3  4  1  0  0  0  0
  1  5  1  0  0  0  0
  5  6  1  0  0  0  0
  6  7  2  0  0  0  0
  7  8  1  0  0  0  0
  8  9  2  0  0  0  0
  9 10  1  0  0  0  0
 10 11  1  0  0  0  0
 11 12  1  0  0  0  0
 13 12  1  1  0  0  0
 13 14  1  0  0  0  0
 14 15  1  0  0  0  0
 15 16  1  0  0  0  0
 16 17  1  0  0  0  0
 17 18  1  0  0  0  0
 18 19  1  0  0  0  0
 18 20  1  0  0  0  0
 14 21  1  6  0  0  0
 13 22  1  0  0  0  0
 10 22  1  0  0  0  0
 22 23  1  1  0  0  0
 22 24  1  0  0  0  0
 24 25  1  0  0  0  0
 25 26  1  0  0  0  0
  9 26  1  0  0  0  0
  4 27  1  0  0  0  0
  6 27  1  0  0  0  0
 27 28  2  0  0  0  0
M  END
> <#>
466

> <PLATE>
LAT006

> <ROW>
B

> <COL>
10

> <COORD>
B10

> <LATID>
LAT006B10

> <Supplier>
Sigma

> <Suplier_CAT#>
C-9756

> <Name>
Vitamin D3

> <Concentration_(mM)>
2.5

> <IC50_(µM)>
inactive

> <Yeast_Active?>
-

> <Pubchem_CID>
2735

$$$$
