
  -ISIS-  08130814242D

 53 59  0  0  0  0  0  0  0  0999 V2000
    6.4417   -3.5167    0.0000 C   0  0  2  0  0  0  0  0  0  0  0  0
    6.4542   -2.7000    0.0000 C   0  0  0  0  0  0  0  0  0  0  0  0
    5.7292   -3.9292    0.0000 C   0  0  1  0  0  0  0  0  0  0  0  0
    1.4500   -6.3792    0.0000 C   0  0  2  0  0  0  0  0  0  0  0  0
    4.3042   -3.9167    0.0000 C   0  0  2  0  0  0  0  0  0  0  0  0
    7.8750   -2.7292    0.0000 C   0  0  1  0  0  0  0  0  0  0  0  0
    2.8792   -7.2125    0.0000 C   0  0  3  0  0  0  0  0  0  0  0  0
    7.1667   -2.3000    0.0000 C   0  0  3  0  0  0  0  0  0  0  0  0
    3.6000   -6.8000    0.0000 C   0  0  1  0  0  0  0  0  0  0  0  0
    5.0167   -3.5042    0.0000 C   0  0  3  0  0  0  0  0  0  0  0  0
    4.3042   -4.7417    0.0000 C   0  0  3  0  0  0  0  0  0  0  0  0
    3.5917   -5.1542    0.0000 C   0  0  1  0  0  0  0  0  0  0  0  0
    4.3167   -7.2167    0.0000 C   0  0  1  0  0  0  0  0  0  0  0  0
    1.4542   -5.5542    0.0000 C   0  0  3  0  0  0  0  0  0  0  0  0
    2.1667   -6.8000    0.0000 O   0  0  0  0  0  0  0  0  0  0  0  0
    2.8792   -8.0417    0.0000 O   0  0  0  0  0  0  0  0  0  0  0  0
    0.7292   -6.7917    0.0000 C   0  0  2  0  0  0  0  0  0  0  0  0
    4.3125   -8.0375    0.0000 C   0  0  2  0  0  0  0  0  0  0  0  0
    5.7500   -2.2792    0.0000 C   0  0  0  0  0  0  0  0  0  0  0  0
    2.8875   -4.7417    0.0000 C   0  0  1  0  0  0  0  0  0  0  0  0
    8.5875   -3.1417    0.0000 C   0  0  0  0  0  0  0  0  0  0  0  0
    3.5917   -8.4500    0.0000 C   0  0  2  0  0  0  0  0  0  0  0  0
    0.7375   -5.1417    0.0000 O   0  0  0  0  0  0  0  0  0  0  0  0
    2.1667   -5.1542    0.0000 O   0  0  0  0  0  0  0  0  0  0  0  0
    7.1417   -3.9417    0.0000 C   0  0  0  0  0  0  0  0  0  0  0  0
    5.7292   -4.7500    0.0000 C   0  0  0  0  0  0  0  0  0  0  0  0
    5.0250   -2.6792    0.0000 C   0  0  0  0  0  0  0  0  0  0  0  0
    7.8625   -3.5417    0.0000 C   0  0  0  0  0  0  0  0  0  0  0  0
    3.5917   -3.5042    0.0000 C   0  0  0  0  0  0  0  0  0  0  0  0
    5.0167   -5.1542    0.0000 C   0  0  0  0  0  0  0  0  0  0  0  0
    8.5917   -2.3375    0.0000 C   0  0  0  0  0  0  0  0  0  0  0  0
    0.0250   -6.3792    0.0000 C   0  0  2  0  0  0  0  0  0  0  0  0
    7.1875   -1.4792    0.0000 C   0  0  0  0  0  0  0  0  0  0  0  0
    0.0292   -5.5542    0.0000 C   0  0  0  0  0  0  0  0  0  0  0  0
    7.9125   -1.0792    0.0000 C   0  0  3  0  0  0  0  0  0  0  0  0
    2.8875   -3.9167    0.0000 C   0  0  0  0  0  0  0  0  0  0  0  0
    8.5792   -3.9667    0.0000 O   0  0  0  0  0  0  0  0  0  0  0  0
    3.6000   -5.9667    0.0000 O   0  0  0  0  0  0  0  0  0  0  0  0
    5.0292   -6.8042    0.0000 O   0  0  0  0  0  0  0  0  0  0  0  0
    8.6167   -1.5125    0.0000 C   0  0  0  0  0  0  0  0  0  0  0  0
    0.7292   -7.6167    0.0000 O   0  0  0  0  0  0  0  0  0  0  0  0
    5.0292   -8.4542    0.0000 O   0  0  0  0  0  0  0  0  0  0  0  0
    4.1792   -5.7375    0.0000 C   0  0  0  0  0  0  0  0  0  0  0  0
    6.4375   -4.3417    0.0000 C   0  0  0  0  0  0  0  0  0  0  0  0
    9.3000   -2.7292    0.0000 O   0  0  0  0  0  0  0  0  0  0  0  0
    5.7250   -3.1042    0.0000 C   0  0  0  0  0  0  0  0  0  0  0  0
    4.3042   -3.0917    0.0000 C   0  0  0  0  0  0  0  0  0  0  0  0
    3.0042   -5.7375    0.0000 C   0  0  0  0  0  0  0  0  0  0  0  0
   -0.6958   -6.7875    0.0000 O   0  0  0  0  0  0  0  0  0  0  0  0
    5.0500   -5.7417    0.0000 O   0  0  0  0  0  0  0  0  0  0  0  0
    3.5917   -9.2750    0.0000 C   0  0  0  0  0  0  0  0  0  0  0  0
    8.4917   -0.4917    0.0000 C   0  0  0  0  0  0  0  0  0  0  0  0
    7.3250   -0.4917    0.0000 C   0  0  0  0  0  0  0  0  0  0  0  0
  2  1  1  0  0  0  0
  3  1  1  0  0  0  0
  4 14  1  0  0  0  0
  5 10  1  0  0  0  0
  6 28  1  0  0  0  0
  7 15  1  0  0  0  0
  2  8  1  6  0  0  0
  9  7  1  0  0  0  0
 10  3  1  0  0  0  0
 11 30  1  0  0  0  0
 12 11  1  0  0  0  0
 13  9  1  0  0  0  0
 14 24  1  0  0  0  0
  4 15  1  6  0  0  0
 16  7  1  0  0  0  0
 17  4  1  0  0  0  0
 18 22  1  0  0  0  0
 19  2  2  0  0  0  0
 20 12  1  0  0  0  0
  6 21  1  1  0  0  0
 22 16  1  0  0  0  0
 23 14  1  0  0  0  0
 20 24  1  1  0  0  0
 25  1  1  0  0  0  0
 26  3  1  0  0  0  0
 27 10  1  0  0  0  0
 28 25  1  0  0  0  0
 29  5  1  0  0  0  0
 30 26  1  0  0  0  0
 31  6  1  0  0  0  0
 32 34  1  0  0  0  0
 33  8  1  0  0  0  0
 34 23  1  0  0  0  0
 35 33  1  0  0  0  0
 36 29  1  0  0  0  0
 37 21  2  0  0  0  0
  9 38  1  6  0  0  0
 13 39  1  6  0  0  0
 40 31  1  0  0  0  0
 17 41  1  1  0  0  0
 18 42  1  1  0  0  0
 12 43  1  6  0  0  0
  1 44  1  6  0  0  0
 45 21  1  0  0  0  0
  3 46  1  1  0  0  0
  5 47  1  1  0  0  0
 12 48  1  1  0  0  0
 32 49  1  1  0  0  0
 50 43  1  0  0  0  0
 22 51  1  6  0  0  0
 52 35  1  0  0  0  0
 53 35  1  0  0  0  0
  6  8  1  0  0  0  0
 27 19  1  0  0  0  0
 11  5  1  0  0  0  0
 35 40  1  0  0  0  0
 20 36  1  0  0  0  0
 17 32  1  0  0  0  0
 18 13  1  0  0  0  0
M  END
> <#>
24

> <PLATE>
LAT001

> <ROW>
H

> <COL>
4

> <COORD>
H04

> <LATID>
LAT001H04

> <Supplier>
Microsource

> <Suplier_CAT#>
01504017

> <Name>
Sapindoside A

> <Concentration_(mM)>
2.5

> <IC50_(µM)>
>100

> <Yeast_Active?>
+

> <Pubchem_CID>
73296

> <Source>
Natural Product; ex Anemone coronaria, Hedera spp

$$$$
