
  -ISIS-  08130814242D

 23 25  0  0  0  0  0  0  0  0999 V2000
   -0.7625    0.5333    0.0000 C   0  0  0  0  0  0  0  0  0  0  0  0
   -1.6000   -0.3792    0.0000 C   0  0  0  0  0  0  0  0  0  0  0  0
   -0.3625   -0.1167    0.0000 C   0  0  0  0  0  0  0  0  0  0  0  0
   -0.9000   -0.7000    0.0000 O   0  0  0  0  0  0  0  0  0  0  0  0
   -1.5208    0.3958    0.0000 C   0  0  0  0  0  0  0  0  0  0  0  0
   -0.4500    1.2208    0.0000 C   0  0  0  0  0  0  0  0  0  0  0  0
   -2.2458   -0.7792    0.0000 C   0  0  0  0  0  0  0  0  0  0  0  0
    1.3167    2.0708    0.0000 C   0  0  0  0  0  0  0  0  0  0  0  0
    0.2792    1.3000    0.0000 C   0  0  0  0  0  0  0  0  0  0  0  0
    0.3667   -0.1792    0.0000 O   0  0  0  0  0  0  0  0  0  0  0  0
    1.7792    1.4958    0.0000 C   0  0  0  0  0  0  0  0  0  0  0  0
    0.5792    1.9708    0.0000 C   0  0  0  0  0  0  0  0  0  0  0  0
   -2.8833   -0.4000    0.0000 C   0  0  0  0  0  0  0  0  0  0  0  0
   -2.2458   -1.5500    0.0000 C   0  0  0  0  0  0  0  0  0  0  0  0
    1.5000    0.7958    0.0000 C   0  0  0  0  0  0  0  0  0  0  0  0
    0.7500    0.7000    0.0000 C   0  0  0  0  0  0  0  0  0  0  0  0
   -3.5208   -1.5500    0.0000 C   0  0  0  0  0  0  0  0  0  0  0  0
   -3.5208   -0.7792    0.0000 C   0  0  0  0  0  0  0  0  0  0  0  0
   -2.8833   -1.9042    0.0000 C   0  0  0  0  0  0  0  0  0  0  0  0
    1.6000    2.7708    0.0000 O   0  0  0  0  0  0  0  0  0  0  0  0
   -4.1625   -1.9292    0.0000 Br  0  0  0  0  0  0  0  0  0  0  0  0
    2.5292    1.6125    0.0000 O   0  0  0  0  0  0  0  0  0  0  0  0
    2.3500    2.8625    0.0000 C   0  0  0  0  0  0  0  0  0  0  0  0
  2  5  2  0  0  0  0
  3  1  1  0  0  0  0
  4  3  1  0  0  0  0
  5  1  1  0  0  0  0
  6  1  2  0  0  0  0
  7  2  1  0  0  0  0
  8 12  2  0  0  0  0
  9  6  1  0  0  0  0
 10  3  2  0  0  0  0
 11 15  2  0  0  0  0
 12  9  1  0  0  0  0
 13  7  1  0  0  0  0
 14  7  2  0  0  0  0
 15 16  1  0  0  0  0
 16  9  2  0  0  0  0
 17 19  2  0  0  0  0
 18 13  2  0  0  0  0
 19 14  1  0  0  0  0
 20  8  1  0  0  0  0
 21 17  1  0  0  0  0
 22 11  1  0  0  0  0
 23 20  1  0  0  0  0
  4  2  1  0  0  0  0
  8 11  1  0  0  0  0
 18 17  1  0  0  0  0
M  END
> <#>
2075

> <PLATE>
LAT026

> <ROW>
C

> <COL>
11

> <COORD>
C11

> <LATID>
LAT026C11

> <Supplier>
Chembridge

> <Suplier_CAT#>
5671409

> <Sec_Name>
212_C02

> <Concentration_(mM)>
2.5

> <IC50_(µM)>
inactive

> <Yeast_Active?>
-

> <Pubchem_CID>
NULL

$$$$
