
  -ISIS-  08130814242D

 27 31  0  0  0  0  0  0  0  0999 V2000
   -0.0333    0.5000    0.0000 C   0  0  0  0  0  0  0  0  0  0  0  0
   -1.0208   -0.0667    0.0000 C   0  0  0  0  0  0  0  0  0  0  0  0
    0.9792   -1.2542    0.0000 N   0  0  0  0  0  0  0  0  0  0  0  0
    0.9792   -0.0667    0.0000 C   0  0  3  0  0  0  0  0  0  0  0  0
   -1.0208   -1.2375    0.0000 C   0  0  0  0  0  0  0  0  0  0  0  0
   -0.0125   -1.8292    0.0000 C   0  0  0  0  0  0  0  0  0  0  0  0
   -0.0333    1.6833    0.0000 C   0  0  0  0  0  0  0  0  0  0  0  0
   -2.0458   -1.8292    0.0000 C   0  0  0  0  0  0  0  0  0  0  0  0
    2.0167    0.5208    0.0000 C   0  0  0  0  0  0  0  0  0  0  0  0
   -0.0125   -3.0000    0.0000 C   0  0  0  0  0  0  0  0  0  0  0  0
    0.9542    2.2833    0.0000 O   0  0  0  0  0  0  0  0  0  0  0  0
   -2.0458   -2.9792    0.0000 C   0  0  0  0  0  0  0  0  0  0  0  0
   -1.0208   -3.5667    0.0000 C   0  0  0  0  0  0  0  0  0  0  0  0
    3.0042   -0.0667    0.0000 C   0  0  0  0  0  0  0  0  0  0  0  0
    2.0167    1.6833    0.0000 C   0  0  0  0  0  0  0  0  0  0  0  0
   -2.0458    0.5000    0.0000 C   0  0  0  0  0  0  0  0  0  0  0  0
    4.0167    1.6833    0.0000 C   0  0  0  0  0  0  0  0  0  0  0  0
    3.0042    2.2708    0.0000 C   0  0  0  0  0  0  0  0  0  0  0  0
    4.0167    0.5208    0.0000 C   0  0  0  0  0  0  0  0  0  0  0  0
    5.0167    2.2500    0.0000 O   0  0  0  0  0  0  0  0  0  0  0  0
   -1.0208    2.2458    0.0000 C   0  0  0  0  0  0  0  0  0  0  0  0
   -2.0458    1.6833    0.0000 C   0  0  0  0  0  0  0  0  0  0  0  0
   -3.0333   -1.2375    0.0000 C   0  0  0  0  0  0  0  0  0  0  0  0
   -3.0333   -3.5667    0.0000 C   0  0  0  0  0  0  0  0  0  0  0  0
    5.0167    3.4000    0.0000 C   0  0  0  0  0  0  0  0  0  0  0  0
   -4.0458   -1.8292    0.0000 C   0  0  0  0  0  0  0  0  0  0  0  0
   -4.0458   -2.9792    0.0000 C   0  0  0  0  0  0  0  0  0  0  0  0
  2  1  2  0  0  0  0
  3  4  1  0  0  0  0
  4  1  1  0  0  0  0
  5  2  1  0  0  0  0
  6  3  1  0  0  0  0
  7  1  1  0  0  0  0
  8  5  1  0  0  0  0
  9  4  1  0  0  0  0
 10  6  1  0  0  0  0
 11  7  2  0  0  0  0
 12  8  2  0  0  0  0
 13 10  2  0  0  0  0
 14  9  2  0  0  0  0
 15  9  1  0  0  0  0
 16  2  1  0  0  0  0
 17 18  1  0  0  0  0
 18 15  2  0  0  0  0
 19 14  1  0  0  0  0
 20 17  1  0  0  0  0
 21  7  1  0  0  0  0
 22 21  1  0  0  0  0
 23  8  1  0  0  0  0
 24 12  1  0  0  0  0
 25 20  1  0  0  0  0
 26 23  2  0  0  0  0
 27 26  1  0  0  0  0
 16 22  1  0  0  0  0
  5  6  2  0  0  0  0
 19 17  2  0  0  0  0
 12 13  1  0  0  0  0
 24 27  2  0  0  0  0
M  END
> <#>
1959

> <PLATE>
LAT025

> <ROW>
G

> <COL>
6

> <COORD>
G06

> <LATID>
LAT025G06

> <Supplier>
Chembridge

> <Suplier_CAT#>
5213688

> <Concentration_(mM)>
2.5

> <IC50_(µM)>
inactive

> <Yeast_Active?>
-

> <Pubchem_CID>
619223

$$$$
