
  -ISIS-  08130814242D

 19 20  0  0  0  0  0  0  0  0999 V2000
    6.6917   -2.5042    0.0000 N   0  3  0  0  0  0  0  0  0  0  0  0
    5.8792   -2.5042    0.0000 C   0  0  0  0  0  0  0  0  0  0  0  0
    4.6375   -1.7917    0.0000 N   0  0  0  0  0  0  0  0  0  0  0  0
    4.2250   -2.5042    0.0000 C   0  0  0  0  0  0  0  0  0  0  0  0
    7.1125   -3.2167    0.0000 O   0  5  0  0  0  0  0  0  0  0  0  0
    5.4625   -1.7875    0.0000 C   0  0  0  0  0  0  0  0  0  0  0  0
    3.6000   -2.5042    0.0000 N   0  0  3  0  0  0  0  0  0  0  0  0
    7.1042   -1.7875    0.0000 O   0  0  0  0  0  0  0  0  0  0  0  0
    5.4667   -3.2167    0.0000 C   0  0  0  0  0  0  0  0  0  0  0  0
    4.6417   -3.2250    0.0000 C   0  0  0  0  0  0  0  0  0  0  0  0
    3.2917   -1.9292    0.0000 C   0  0  0  0  0  0  0  0  0  0  0  0
    3.5292   -1.5292    0.0000 C   0  0  0  0  0  0  0  0  0  0  0  0
    3.2167   -0.9917    0.0000 C   0  0  0  0  0  0  0  0  0  0  0  0
    3.1625   -3.2750    0.0000 C   0  0  0  0  0  0  0  0  0  0  0  0
    2.5292   -0.9875    0.0000 C   0  0  0  0  0  0  0  0  0  0  0  0
    3.5542   -0.3917    0.0000 C   0  0  0  0  0  0  0  0  0  0  0  0
    3.2250    0.2083    0.0000 C   0  0  0  0  0  0  0  0  0  0  0  0
    2.1542   -0.3792    0.0000 C   0  0  0  0  0  0  0  0  0  0  0  0
    2.5417    0.2125    0.0000 C   0  0  0  0  0  0  0  0  0  0  0  0
  2  1  1  0  0  0  0
  3  6  1  0  0  0  0
  4 10  1  0  0  0  0
  5  1  1  0  0  0  0
  6  2  2  0  0  0  0
  7  4  1  0  0  0  0
  8  1  2  0  0  0  0
  9  2  1  0  0  0  0
 10  9  2  0  0  0  0
 11  7  1  0  0  0  0
 12 11  1  0  0  0  0
 13 12  1  0  0  0  0
 14  7  1  0  0  0  0
 15 13  2  0  0  0  0
 16 13  1  0  0  0  0
 17 16  2  0  0  0  0
 18 15  1  0  0  0  0
 19 17  1  0  0  0  0
  4  3  2  0  0  0  0
 19 18  2  0  0  0  0
M  CHG  2   1   1   5  -1
M  END
> <#>
633

> <PLATE>
LAT008

> <ROW>
A

> <COL>
11

> <COORD>
A11

> <LATID>
LAT008A11

> <Supplier>
Chembridge

> <Suplier_CAT#>
5487342

> <Name>
Novel

> <Sec_Name>
149_B02

> <Concentration_(mM)>
2.5

> <IC50_(µM)>
24

> <Yeast_Active?>
-

> <Pubchem_CID>
2848973

$$$$
