
  -ISIS-  08130814242D

 26 29  0  0  0  0  0  0  0  0999 V2000
    3.0417    3.3833    0.0000 C   0  0  3  0  0  0  0  0  0  0  0  0
    2.4292    2.9458    0.0000 C   0  0  0  0  0  0  0  0  0  0  0  0
    1.8292    3.3833    0.0000 N   0  0  3  0  0  0  0  0  0  0  0  0
    2.8042    4.0917    0.0000 C   0  0  0  0  0  0  0  0  0  0  0  0
    2.0542    4.0917    0.0000 C   0  0  0  0  0  0  0  0  0  0  0  0
    3.7250    3.6875    0.0000 C   0  0  0  0  0  0  0  0  0  0  0  0
    4.9750    3.3333    0.0000 C   0  0  0  0  0  0  0  0  0  0  0  0
    5.4917    2.7875    0.0000 C   0  0  0  0  0  0  0  0  0  0  0  0
    4.2417    3.1458    0.0000 C   0  0  0  0  0  0  0  0  0  0  0  0
    6.2250    2.9708    0.0000 C   0  0  0  0  0  0  0  0  0  0  0  0
    5.1792    4.0417    0.0000 C   0  0  0  0  0  0  0  0  0  0  0  0
    2.4292    2.1958    0.0000 O   0  0  0  0  0  0  0  0  0  0  0  0
    4.1042    2.6458    0.0000 O   0  0  0  0  0  0  0  0  0  0  0  0
    3.4167    2.7333    0.0000 O   0  0  0  0  0  0  0  0  0  0  0  0
    6.4292    3.6958    0.0000 C   0  0  0  0  0  0  0  0  0  0  0  0
    5.9042    4.2167    0.0000 C   0  0  0  0  0  0  0  0  0  0  0  0
    5.2875    2.0708    0.0000 O   0  0  0  0  0  0  0  0  0  0  0  0
    1.1125    3.1500    0.0000 C   0  0  0  0  0  0  0  0  0  0  0  0
    3.1792    4.7417    0.0000 C   0  0  0  0  0  0  0  0  0  0  0  0
    1.6792    4.7417    0.0000 C   0  0  0  0  0  0  0  0  0  0  0  0
    6.7417    2.4333    0.0000 C   0  0  0  0  0  0  0  0  0  0  0  0
    7.1542    3.8750    0.0000 C   0  0  0  0  0  0  0  0  0  0  0  0
    2.8042    5.3917    0.0000 C   0  0  0  0  0  0  0  0  0  0  0  0
    2.0542    5.3917    0.0000 C   0  0  0  0  0  0  0  0  0  0  0  0
    7.4667    2.6125    0.0000 C   0  0  0  0  0  0  0  0  0  0  0  0
    7.6792    3.3333    0.0000 C   0  0  0  0  0  0  0  0  0  0  0  0
  2  1  1  0  0  0  0
  3  2  1  0  0  0  0
  4  1  1  0  0  0  0
  5  4  1  0  0  0  0
  6  1  1  0  0  0  0
  7  9  1  0  0  0  0
  8  7  2  0  0  0  0
  9  6  1  0  0  0  0
 10  8  1  0  0  0  0
 11  7  1  0  0  0  0
 12  2  2  0  0  0  0
 13  9  2  0  0  0  0
 14  1  1  0  0  0  0
 15 16  1  0  0  0  0
 16 11  2  0  0  0  0
 17  8  1  0  0  0  0
 18  3  1  0  0  0  0
 19  4  2  0  0  0  0
 20  5  2  0  0  0  0
 21 10  2  0  0  0  0
 22 15  2  0  0  0  0
 23 19  1  0  0  0  0
 24 23  2  0  0  0  0
 25 21  1  0  0  0  0
 26 22  1  0  0  0  0
  5  3  1  0  0  0  0
 20 24  1  0  0  0  0
 15 10  1  0  0  0  0
 25 26  2  0  0  0  0
M  END
> <#>
1254

> <PLATE>
LAT016

> <ROW>
F

> <COL>
8

> <COORD>
F08

> <LATID>
LAT016F08

> <Supplier>
Chembridge

> <Suplier_CAT#>
7964055

> <Name>
Novel

> <Concentration_(mM)>
2.5

> <IC50_(µM)>
>100

> <Yeast_Active?>
-

> <Pubchem_CID>
1253629

$$$$
