
  -ISIS-  08130814242D

 28 30  0  0  0  0  0  0  0  0999 V2000
    6.9250    1.4958    0.0000 S   0  0  3  0  0  0  0  0  0  0  0  0
    6.7292    2.2208    0.0000 N   0  0  3  0  0  0  0  0  0  0  0  0
    7.6750    1.4958    0.0000 C   0  0  0  0  0  0  0  0  0  0  0  0
    3.8292    3.0000    0.0000 C   0  0  0  0  0  0  0  0  0  0  0  0
    6.1875    1.3708    0.0000 O   0  0  0  0  0  0  0  0  0  0  0  0
    6.9917    0.7500    0.0000 O   0  0  0  0  0  0  0  0  0  0  0  0
    3.3042    2.4708    0.0000 N   0  0  0  0  0  0  0  0  0  0  0  0
    6.0042    2.4208    0.0000 C   0  0  0  0  0  0  0  0  0  0  0  0
    4.5542    2.8083    0.0000 C   0  0  0  0  0  0  0  0  0  0  0  0
    1.3250    2.3333    0.0000 N   0  0  0  0  0  0  0  0  0  0  0  0
    3.6375    3.7208    0.0000 O   0  0  0  0  0  0  0  0  0  0  0  0
    5.4750    1.8958    0.0000 C   0  0  0  0  0  0  0  0  0  0  0  0
    5.8125    3.1458    0.0000 C   0  0  0  0  0  0  0  0  0  0  0  0
    5.0875    3.3333    0.0000 C   0  0  0  0  0  0  0  0  0  0  0  0
    4.7500    2.0833    0.0000 C   0  0  0  0  0  0  0  0  0  0  0  0
    8.0500    0.8500    0.0000 C   0  0  0  0  0  0  0  0  0  0  0  0
    8.0500    2.1458    0.0000 C   0  0  0  0  0  0  0  0  0  0  0  0
    2.5792    2.6625    0.0000 C   0  0  0  0  0  0  0  0  0  0  0  0
    2.0500    2.1333    0.0000 C   0  0  0  0  0  0  0  0  0  0  0  0
    9.1750    1.4958    0.0000 C   0  0  0  0  0  0  0  0  0  0  0  0
    8.8000    2.1458    0.0000 C   0  0  0  0  0  0  0  0  0  0  0  0
    8.8000    0.8500    0.0000 C   0  0  0  0  0  0  0  0  0  0  0  0
    9.9250    1.4958    0.0000 Cl  0  0  0  0  0  0  0  0  0  0  0  0
    7.2625    2.7583    0.0000 C   0  0  0  0  0  0  0  0  0  0  0  0
    0.7917    1.7958    0.0000 C   0  0  0  0  0  0  0  0  0  0  0  0
    2.2417    1.4083    0.0000 C   0  0  0  0  0  0  0  0  0  0  0  0
    0.9875    1.0708    0.0000 C   0  0  0  0  0  0  0  0  0  0  0  0
    1.7125    0.8750    0.0000 C   0  0  0  0  0  0  0  0  0  0  0  0
  2  1  1  0  0  0  0
  3  1  1  0  0  0  0
  4  9  1  0  0  0  0
  5  1  2  0  0  0  0
  6  1  2  0  0  0  0
  7  4  1  0  0  0  0
  8  2  1  0  0  0  0
  9 14  1  0  0  0  0
 10 19  1  0  0  0  0
 11  4  2  0  0  0  0
 12  8  2  0  0  0  0
 13  8  1  0  0  0  0
 14 13  2  0  0  0  0
 15 12  1  0  0  0  0
 16  3  2  0  0  0  0
 17  3  1  0  0  0  0
 18  7  1  0  0  0  0
 19 18  1  0  0  0  0
 20 21  1  0  0  0  0
 21 17  2  0  0  0  0
 22 16  1  0  0  0  0
 23 20  1  0  0  0  0
 24  2  1  0  0  0  0
 25 10  2  0  0  0  0
 26 19  2  0  0  0  0
 27 28  2  0  0  0  0
 28 26  1  0  0  0  0
 20 22  2  0  0  0  0
  9 15  2  0  0  0  0
 25 27  1  0  0  0  0
M  END
> <#>
1526

> <PLATE>
LAT020

> <ROW>
F

> <COL>
2

> <COORD>
F02

> <LATID>
LAT020F02

> <Supplier>
Chembridge

> <Suplier_CAT#>
7943105

> <Name>
Novel

> <Concentration_(mM)>
2.5

> <IC50_(µM)>
73

> <Yeast_Active?>
-

> <Pubchem_CID>
2970137

$$$$
