
  -ISIS-  08130814242D

 22 24  0  0  0  0  0  0  0  0999 V2000
   -3.3833   -1.8500    0.0000 S   0  0  3  0  0  0  0  0  0  0  0  0
   -1.2708   -0.6042    0.0000 C   0  0  3  0  0  0  0  0  0  0  0  0
    0.5167    1.3208    0.0000 C   0  0  0  0  0  0  0  0  0  0  0  0
    0.2000   -0.1292    0.0000 N   0  0  3  0  0  0  0  0  0  0  0  0
   -1.8625   -2.0042    0.0000 C   0  0  0  0  0  0  0  0  0  0  0  0
   -2.4208    0.4000    0.0000 C   0  0  0  0  0  0  0  0  0  0  0  0
   -3.7125   -0.3542    0.0000 C   0  0  0  0  0  0  0  0  0  0  0  0
   -3.5333   -3.3542    0.0000 O   0  0  0  0  0  0  0  0  0  0  0  0
   -4.8458   -2.3000    0.0000 O   0  0  0  0  0  0  0  0  0  0  0  0
   -0.5333    2.4125    0.0000 O   0  0  0  0  0  0  0  0  0  0  0  0
    1.9667    1.7208    0.0000 C   0  0  0  0  0  0  0  0  0  0  0  0
    1.3042   -1.1000    0.0000 C   0  0  0  0  0  0  0  0  0  0  0  0
    2.3542    3.1958    0.0000 C   0  0  0  0  0  0  0  0  0  0  0  0
    3.0500    0.6458    0.0000 C   0  0  0  0  0  0  0  0  0  0  0  0
    2.7292   -0.5667    0.0000 C   0  0  0  0  0  0  0  0  0  0  0  0
    1.1000   -2.6000    0.0000 C   0  0  0  0  0  0  0  0  0  0  0  0
    4.5167    1.0333    0.0000 C   0  0  0  0  0  0  0  0  0  0  0  0
    3.8500    3.5708    0.0000 C   0  0  0  0  0  0  0  0  0  0  0  0
    3.9500   -1.5167    0.0000 C   0  0  0  0  0  0  0  0  0  0  0  0
    2.2500   -3.5542    0.0000 C   0  0  0  0  0  0  0  0  0  0  0  0
    4.9167    2.4958    0.0000 C   0  0  0  0  0  0  0  0  0  0  0  0
    3.6792   -3.0042    0.0000 C   0  0  0  0  0  0  0  0  0  0  0  0
  2  5  1  0  0  0  0
  3  4  1  0  0  0  0
  4  2  1  0  0  0  0
  5  1  1  0  0  0  0
  6  7  2  0  0  0  0
  7  1  1  0  0  0  0
  8  1  2  0  0  0  0
  9  1  2  0  0  0  0
 10  3  2  0  0  0  0
 11  3  1  0  0  0  0
 12  4  1  0  0  0  0
 13 11  2  0  0  0  0
 14 11  1  0  0  0  0
 15 12  2  0  0  0  0
 16 12  1  0  0  0  0
 17 14  2  0  0  0  0
 18 13  1  0  0  0  0
 19 15  1  0  0  0  0
 20 16  2  0  0  0  0
 21 17  1  0  0  0  0
 22 20  1  0  0  0  0
  2  6  1  0  0  0  0
 22 19  2  0  0  0  0
 21 18  2  0  0  0  0
M  END
> <#>
2057

> <PLATE>
LAT026

> <ROW>
A

> <COL>
9

> <COORD>
A09

> <LATID>
LAT026A09

> <Supplier>
Chembridge

> <Suplier_CAT#>
5634648

> <Sec_Name>
192_C09

> <Concentration_(mM)>
2.5

> <IC50_(µM)>
inactive

> <Yeast_Active?>
-

> <Pubchem_CID>
1382277

$$$$
