
  -ISIS-  08130814242D

 19 20  0  0  0  0  0  0  0  0999 V2000
    4.1542    1.4458    0.0000 S   0  0  3  0  0  0  0  0  0  0  0  0
    3.6167    1.9708    0.0000 N   0  0  0  0  0  0  0  0  0  0  0  0
    4.8042    1.8208    0.0000 C   0  0  0  0  0  0  0  0  0  0  0  0
    3.5792    0.9583    0.0000 O   0  0  0  0  0  0  0  0  0  0  0  0
    4.5792    0.8333    0.0000 O   0  0  0  0  0  0  0  0  0  0  0  0
    2.5625    3.0333    0.0000 N   0  0  0  0  0  0  0  0  0  0  0  0
    2.9000    1.7833    0.0000 C   0  0  0  0  0  0  0  0  0  0  0  0
    5.4500    1.4458    0.0000 C   0  0  0  0  0  0  0  0  0  0  0  0
    4.8042    2.5708    0.0000 C   0  0  0  0  0  0  0  0  0  0  0  0
    2.3667    2.3083    0.0000 C   0  0  0  0  0  0  0  0  0  0  0  0
    6.1000    2.5708    0.0000 C   0  0  0  0  0  0  0  0  0  0  0  0
    6.7500    2.9458    0.0000 S   0  0  0  0  0  0  0  0  0  0  0  0
    5.4500    2.9458    0.0000 C   0  0  0  0  0  0  0  0  0  0  0  0
    6.1000    1.8208    0.0000 C   0  0  0  0  0  0  0  0  0  0  0  0
    2.0292    3.5625    0.0000 C   0  0  0  0  0  0  0  0  0  0  0  0
    7.4000    2.5708    0.0000 C   0  0  0  0  0  0  0  0  0  0  0  0
    1.6417    2.1125    0.0000 C   0  0  0  0  0  0  0  0  0  0  0  0
    1.3042    3.3708    0.0000 C   0  0  0  0  0  0  0  0  0  0  0  0
    1.1125    2.6458    0.0000 C   0  0  0  0  0  0  0  0  0  0  0  0
  2  1  1  0  0  0  0
  3  1  1  0  0  0  0
  4  1  2  0  0  0  0
  5  1  2  0  0  0  0
  6 10  1  0  0  0  0
  7  2  1  0  0  0  0
  8  3  1  0  0  0  0
  9  3  2  0  0  0  0
 10  7  1  0  0  0  0
 11 13  2  0  0  0  0
 12 11  1  0  0  0  0
 13  9  1  0  0  0  0
 14  8  2  0  0  0  0
 15  6  2  0  0  0  0
 16 12  1  0  0  0  0
 17 10  2  0  0  0  0
 18 19  2  0  0  0  0
 19 17  1  0  0  0  0
 11 14  1  0  0  0  0
 18 15  1  0  0  0  0
M  END
> <#>
1953

> <PLATE>
LAT025

> <ROW>
A

> <COL>
6

> <COORD>
A06

> <LATID>
LAT025A06

> <Supplier>
Chembridge

> <Suplier_CAT#>
7938042

> <Name>
Novel

> <Concentration_(mM)>
2.5

> <IC50_(µM)>
60

> <Yeast_Active?>
-

> <Pubchem_CID>
1266647

$$$$
