
  -ISIS-  08130814242D

 55 61  0  0  0  0  0  0  0  0999 V2000
    9.3581   -3.2106    0.0000 N   0  0  3  0  0  0  0  0  0  0  0  0
   10.0706   -3.6231    0.0000 C   0  0  0  0  0  0  0  0  0  0  0  0
   10.6831   -3.0730    0.0000 C   0  0  0  0  0  0  0  0  0  0  0  0
   10.3491   -2.3204    0.0000 C   0  0  0  0  0  0  0  0  0  0  0  0
    9.5303   -2.4056    0.0000 C   0  0  0  0  0  0  0  0  0  0  0  0
    7.2194   -3.6166    0.0000 C   0  0  0  0  0  0  0  0  0  0  0  0
    7.2141   -4.4398    0.0000 N   0  0  0  0  0  0  0  0  0  0  0  0
    7.9232   -4.8542    0.0000 C   0  0  0  0  0  0  0  0  0  0  0  0
    8.6381   -4.4465    0.0000 N   0  0  0  0  0  0  0  0  0  0  0  0
    8.6395   -3.6202    0.0000 C   0  0  0  0  0  0  0  0  0  0  0  0
    7.9297   -3.2095    0.0000 C   0  0  0  0  0  0  0  0  0  0  0  0
    5.0875   -2.3667    0.0000 N   0  0  3  0  0  0  0  0  0  0  0  0
    5.0833   -3.1917    0.0000 C   0  0  0  0  0  0  0  0  0  0  0  0
    5.7918   -3.6055    0.0000 C   0  0  0  0  0  0  0  0  0  0  0  0
    6.5089   -3.1989    0.0000 N   0  0  3  0  0  0  0  0  0  0  0  0
    6.5131   -2.3739    0.0000 C   0  0  0  0  0  0  0  0  0  0  0  0
    5.8001   -1.9555    0.0000 C   0  0  0  0  0  0  0  0  0  0  0  0
    4.1374   -4.3747    0.0000 C   0  0  0  0  0  0  0  0  0  0  0  0
    4.1457   -3.5664    0.0000 C   0  0  0  0  0  0  0  0  0  0  0  0
    3.4534   -3.1717    0.0000 C   0  0  1  0  0  0  0  0  0  0  0  0
    2.7695   -4.3694    0.0000 C   0  0  2  0  0  0  0  0  0  0  0  0
    2.7654   -3.5736    0.0000 C   0  0  2  0  0  0  0  0  0  0  0  0
    2.0776   -3.1814    0.0000 C   0  0  0  0  0  0  0  0  0  0  0  0
    1.3849   -3.5808    0.0000 C   0  0  0  0  0  0  0  0  0  0  0  0
    2.0859   -4.7689    0.0000 C   0  0  1  0  0  0  0  0  0  0  0  0
    1.3933   -4.3767    0.0000 C   0  0  0  0  0  0  0  0  0  0  0  0
    1.4016   -5.9690    0.0000 C   0  0  0  0  0  0  0  0  0  0  0  0
    2.0942   -5.5647    0.0000 C   0  0  0  0  0  0  0  0  0  0  0  0
    0.7138   -5.5719    0.0000 C   0  0  0  0  0  0  0  0  0  0  0  0
    0.7096   -4.7761    0.0000 C   0  0  2  0  0  0  0  0  0  0  0  0
    0.0170   -4.3839    0.0000 C   0  0  0  0  0  0  0  0  0  0  0  0
   -0.6708   -4.7833    0.0000 C   0  0  0  0  0  0  0  0  0  0  0  0
   -0.6667   -5.5792    0.0000 C   0  0  0  0  0  0  0  0  0  0  0  0
    0.0253   -5.9762    0.0000 C   0  0  0  0  0  0  0  0  0  0  0  0
    3.6625   -2.3708    0.0000 C   0  0  0  0  0  0  0  0  0  0  0  0
    4.3750   -1.9583    0.0000 C   0  0  0  0  0  0  0  0  0  0  0  0
    3.0061   -1.8711    0.0000 O   0  0  0  0  0  0  0  0  0  0  0  0
    7.9188   -5.6792    0.0000 N   0  0  3  0  0  0  0  0  0  0  0  0
    7.2482   -6.1555    0.0000 C   0  0  0  0  0  0  0  0  0  0  0  0
    7.4989   -6.9414    0.0000 C   0  0  0  0  0  0  0  0  0  0  0  0
    8.3240   -6.9458    0.0000 C   0  0  0  0  0  0  0  0  0  0  0  0
    8.5830   -6.1625    0.0000 C   0  0  0  0  0  0  0  0  0  0  0  0
   -1.3795   -5.9945    0.0000 O   0  0  0  0  0  0  0  0  0  0  0  0
    0.4458   -3.8625    0.0000 C   0  0  0  0  0  0  0  0  0  0  0  0
    2.0792   -3.9417    0.0000 H   0  0  0  0  0  0  0  0  0  0  0  0
    3.1750   -5.0792    0.0000 H   0  0  0  0  0  0  0  0  0  0  0  0
    2.5667   -2.7375    0.0000 C   0  0  0  0  0  0  0  0  0  0  0  0
   12.9708   -4.0167    0.0000 C   0  0  0  0  0  0  0  0  0  0  0  0
   12.9667   -4.8417    0.0000 C   0  0  0  0  0  0  0  0  0  0  0  0
   13.6874   -3.6078    0.0000 C   0  0  0  0  0  0  0  0  0  0  0  0
   13.6790   -5.2578    0.0000 C   0  0  0  0  0  0  0  0  0  0  0  0
   14.3994   -4.0199    0.0000 O   0  0  0  0  0  0  0  0  0  0  0  0
   13.6912   -2.7788    0.0000 O   0  0  0  0  0  0  0  0  0  0  0  0
   13.6781   -6.0805    0.0000 O   0  0  0  0  0  0  0  0  0  0  0  0
   14.3988   -4.8466    0.0000 O   0  0  0  0  0  0  0  0  0  0  0  0
 20 22  1  0  0  0  0
 21 18  1  0  0  0  0
 21 22  1  0  0  0  0
 22 23  1  0  0  0  0
 23 24  1  0  0  0  0
 24 26  2  0  0  0  0
 25 21  1  0  0  0  0
 25 26  1  0  0  0  0
 26 30  1  0  0  0  0
 29 27  1  0  0  0  0
 27 28  1  0  0  0  0
 28 25  1  0  0  0  0
 29 30  1  0  0  0  0
 30 31  1  0  0  0  0
 31 32  2  0  0  0  0
 32 33  1  0  0  0  0
 33 34  1  0  0  0  0
 34 29  2  0  0  0  0
 15 16  1  0  0  0  0
 20 35  1  1  0  0  0
 16 17  1  0  0  0  0
 35 36  1  0  0  0  0
 36 12  1  0  0  0  0
  2  3  1  0  0  0  0
 35 37  2  0  0  0  0
 15  6  1  0  0  0  0
  8  9  2  0  0  0  0
  8 38  1  0  0  0  0
 10  1  1  0  0  0  0
 38 39  1  0  0  0  0
  3  4  1  0  0  0  0
  9 10  1  0  0  0  0
  4  5  1  0  0  0  0
 10 11  2  0  0  0  0
 39 40  1  0  0  0  0
 40 41  1  0  0  0  0
 41 42  1  0  0  0  0
 42 38  1  0  0  0  0
 11  6  1  0  0  0  0
 33 43  2  0  0  0  0
 12 13  1  0  0  0  0
 30 44  1  1  0  0  0
  5  1  1  0  0  0  0
 25 45  1  1  0  0  0
  1  2  1  0  0  0  0
 21 46  1  6  0  0  0
 22 47  1  1  0  0  0
  6  7  2  0  0  0  0
 48 49  2  0  0  0  0
  7  8  1  0  0  0  0
 48 50  1  0  0  0  0
 12 17  1  0  0  0  0
 49 51  1  0  0  0  0
 13 14  1  0  0  0  0
 14 15  1  0  0  0  0
 50 52  1  0  0  0  0
 50 53  2  0  0  0  0
 18 19  1  0  0  0  0
 19 20  1  0  0  0  0
 51 54  1  0  0  0  0
 51 55  2  0  0  0  0
M  END
> <#>
286

> <PLATE>
LAT004

> <ROW>
F

> <COL>
7

> <COORD>
F07

> <LATID>
LAT004F07

> <Supplier>
Sigma

> <Suplier_CAT#>
U 5882

> <Name>
U-74389G Maleate

> <Concentration_(mM)>
2.5

> <IC50_(µM)>
48

> <Yeast_Active?>
-

> <Pubchem_CID>
104933

> <Description>
Free radical lipid peroxidation inhibitor

$$$$
