
  -ISIS-  08130814242D

 24 25  0  0  0  0  0  0  0  0999 V2000
   14.3584    0.3808    0.0000 C   0  0  0  0  0  0  0  0  0  0  0  0
   13.2680   -0.2304    0.0000 C   0  0  0  0  0  0  0  0  0  0  0  0
   12.1935    0.4084    0.0000 C   0  0  0  0  0  0  0  0  0  0  0  0
   11.1031   -0.2028    0.0000 C   0  0  0  0  0  0  0  0  0  0  0  0
   10.0286    0.4359    0.0000 O   0  0  0  0  0  0  0  0  0  0  0  0
    8.9382   -0.1753    0.0000 C   0  0  0  0  0  0  0  0  0  0  0  0
    7.8637    0.4634    0.0000 C   0  0  0  0  0  0  0  0  0  0  0  0
    6.7733   -0.1478    0.0000 O   0  0  0  0  0  0  0  0  0  0  0  0
    5.6988    0.4909    0.0000 C   0  0  0  0  0  0  0  0  0  0  0  0
    4.6084   -0.1203    0.0000 C   0  0  0  0  0  0  0  0  0  0  0  0
    3.5339    0.5184    0.0000 O   0  0  0  0  0  0  0  0  0  0  0  0
    2.4435   -0.0928    0.0000 C   0  0  0  0  0  0  0  0  0  0  0  0
    2.4276   -1.3427    0.0000 C   0  0  0  0  0  0  0  0  0  0  0  0
    3.5021   -1.9814    0.0000 C   0  0  0  0  0  0  0  0  0  0  0  0
    3.4863   -3.2313    0.0000 C   0  0  0  0  0  0  0  0  0  0  0  0
    2.3959   -3.8425    0.0000 C   0  0  0  0  0  0  0  0  0  0  0  0
    1.3214   -3.2038    0.0000 C   0  0  0  0  0  0  0  0  0  0  0  0
    1.3373   -1.9539    0.0000 C   0  0  0  0  0  0  0  0  0  0  0  0
    0.2628   -1.3151    0.0000 C   0  0  0  0  0  0  0  0  0  0  0  0
   -0.8276   -1.9263    0.0000 C   0  0  0  0  0  0  0  0  0  0  0  0
   -1.9021   -1.2876    0.0000 C   0  0  0  0  0  0  0  0  0  0  0  0
    2.6402   -5.0683    0.0000 O   0  0  0  0  0  0  0  0  0  0  0  0
    3.8816   -5.2148    0.0000 C   0  0  0  0  0  0  0  0  0  0  0  0
    4.4045   -4.0794    0.0000 O   0  0  0  0  0  0  0  0  0  0  0  0
  1  2  1  0  0  0  0
  2  3  1  0  0  0  0
  3  4  1  0  0  0  0
  4  5  1  0  0  0  0
  5  6  1  0  0  0  0
  6  7  1  0  0  0  0
  7  8  1  0  0  0  0
  8  9  1  0  0  0  0
  9 10  1  0  0  0  0
 10 11  1  0  0  0  0
 11 12  1  0  0  0  0
 12 13  1  0  0  0  0
 13 14  2  0  0  0  0
 14 15  1  0  0  0  0
 15 16  2  0  0  0  0
 16 17  1  0  0  0  0
 17 18  2  0  0  0  0
 13 18  1  0  0  0  0
 18 19  1  0  0  0  0
 19 20  1  0  0  0  0
 20 21  1  0  0  0  0
 16 22  1  0  0  0  0
 22 23  1  0  0  0  0
 23 24  1  0  0  0  0
 15 24  1  0  0  0  0
M  END
> <#>
378

> <PLATE>
LAT005

> <ROW>
B

> <COL>
9

> <COORD>
B09

> <LATID>
LAT005B09

> <Supplier>
Riedel-de Haen

> <Suplier_CAT#>
45626

> <Name>
Piperonylbutoxide

> <Concentration_(mM)>
2.5

> <IC50_(µM)>
100

> <Yeast_Active?>
-

> <Pubchem_CID>
5794

> <Description>
Synergist

> <LATCA_Notes>
Used as a general P450 inhibitor

$$$$
