
  -ISIS-  08130814242D

 24 25  0  0  0  0  0  0  0  0999 V2000
    2.5667   -0.8292    0.0000 C   0  0  0  0  0  0  0  0  0  0  0  0
   -0.7125   -1.6000    0.0000 C   0  0  0  0  0  0  0  0  0  0  0  0
    2.1000   -1.6375    0.0000 C   0  0  0  0  0  0  0  0  0  0  0  0
    3.4792   -0.7542    0.0000 S   0  0  0  0  0  0  0  0  0  0  0  0
   -2.0958   -0.7542    0.0000 N   0  0  0  0  0  0  0  0  0  0  0  0
    1.1667   -1.6375    0.0000 N   0  0  0  0  0  0  0  0  0  0  0  0
   -0.2625   -2.4167    0.0000 C   0  0  0  0  0  0  0  0  0  0  0  0
   -4.4458    1.6958    0.0000 C   0  0  0  0  0  0  0  0  0  0  0  0
   -1.6458   -1.5792    0.0000 N   0  0  0  0  0  0  0  0  0  0  0  0
    2.1792    0.0000    0.0000 C   0  0  0  0  0  0  0  0  0  0  0  0
   -4.9125    2.5000    0.0000 N   0  0  3  0  0  0  0  0  0  0  0  0
    3.7000    0.1708    0.0000 C   0  0  0  0  0  0  0  0  0  0  0  0
   -0.2333   -0.8042    0.0000 O   0  0  0  0  0  0  0  0  0  0  0  0
    0.6792   -2.4375    0.0000 O   0  0  0  0  0  0  0  0  0  0  0  0
    2.8875    0.6458    0.0000 C   0  0  0  0  0  0  0  0  0  0  0  0
   -3.5000    1.6958    0.0000 C   0  0  0  0  0  0  0  0  0  0  0  0
   -4.9125    0.8833    0.0000 C   0  0  0  0  0  0  0  0  0  0  0  0
   -3.0333   -0.7500    0.0000 C   0  0  0  0  0  0  0  0  0  0  0  0
   -3.5000    0.0708    0.0000 C   0  0  0  0  0  0  0  0  0  0  0  0
   -4.4458    0.0708    0.0000 C   0  0  0  0  0  0  0  0  0  0  0  0
   -3.0333    0.8833    0.0000 C   0  0  0  0  0  0  0  0  0  0  0  0
    2.5542   -2.4500    0.0000 C   0  0  0  0  0  0  0  0  0  0  0  0
   -4.4583    3.3000    0.0000 C   0  0  0  0  0  0  0  0  0  0  0  0
   -5.8333    2.5000    0.0000 C   0  0  0  0  0  0  0  0  0  0  0  0
  2  7  1  0  0  0  0
  3  1  1  0  0  0  0
  4  1  1  0  0  0  0
  5  9  1  0  0  0  0
  6  3  2  0  0  0  0
  7 14  1  0  0  0  0
  8 16  1  0  0  0  0
  9  2  1  0  0  0  0
 10  1  2  0  0  0  0
 11  8  1  0  0  0  0
 12  4  1  0  0  0  0
 13  2  2  0  0  0  0
 14  6  1  0  0  0  0
 15 10  1  0  0  0  0
 16 21  2  0  0  0  0
 17 20  1  0  0  0  0
 18  5  2  0  0  0  0
 19 18  1  0  0  0  0
 20 19  2  0  0  0  0
 21 19  1  0  0  0  0
 22  3  1  0  0  0  0
 23 11  1  0  0  0  0
 24 11  1  0  0  0  0
 15 12  2  0  0  0  0
  8 17  2  0  0  0  0
M  END
> <#>
698

> <PLATE>
LAT009

> <ROW>
B

> <COL>
9

> <COORD>
B09

> <LATID>
LAT009B09

> <Supplier>
Chembridge

> <Suplier_CAT#>
5557804

> <Name>
Novel

> <Sec_Name>
167_C04

> <Concentration_(mM)>
2.5

> <IC50_(µM)>
26

> <Yeast_Active?>
-

> <Pubchem_CID>
2852475

$$$$
