
  -ISIS-  08130814242D

 16 16  0  0  0  0  0  0  0  0999 V2000
   -3.0500    0.6458    0.0000 C   0  0  0  0  0  0  0  0  0  0  0  0
   -3.8625    0.1708    0.0000 C   0  0  0  0  0  0  0  0  0  0  0  0
   -3.0500    1.5833    0.0000 C   0  0  0  0  0  0  0  0  0  0  0  0
    0.8375    1.2708    0.0000 N   0  0  0  0  0  0  0  0  0  0  0  0
   -3.8500   -0.3875    0.0000 O   0  0  0  0  0  0  0  0  0  0  0  0
   -2.1333    1.9333    0.0000 O   0  0  0  0  0  0  0  0  0  0  0  0
    3.6792    1.6833    0.0000 O   0  0  0  0  0  0  0  0  0  0  0  0
   -4.6708    1.5833    0.0000 C   0  0  0  0  0  0  0  0  0  0  0  0
   -4.6708    0.6458    0.0000 C   0  0  0  0  0  0  0  0  0  0  0  0
   -3.8625    2.0500    0.0000 C   0  0  0  0  0  0  0  0  0  0  0  0
    1.8167    1.7000    0.0000 C   0  0  0  0  0  0  0  0  0  0  0  0
   -0.1708    1.7458    0.0000 C   0  0  0  0  0  0  0  0  0  0  0  0
   -1.2833    1.4458    0.0000 C   0  0  0  0  0  0  0  0  0  0  0  0
    2.7792    1.1708    0.0000 C   0  0  0  0  0  0  0  0  0  0  0  0
   -3.1625   -0.6375    0.0000 C   0  0  0  0  0  0  0  0  0  0  0  0
    4.3500    1.1333    0.0000 C   0  0  0  0  0  0  0  0  0  0  0  0
  2  1  1  0  0  0  0
  3  1  2  0  0  0  0
  4 12  1  0  0  0  0
  5  2  1  0  0  0  0
  6  3  1  0  0  0  0
  7 14  1  0  0  0  0
  8 10  2  0  0  0  0
  9  2  2  0  0  0  0
 10  3  1  0  0  0  0
 11  4  1  0  0  0  0
 12 13  1  0  0  0  0
 13  6  1  0  0  0  0
 14 11  1  0  0  0  0
 15  5  1  0  0  0  0
 16  7  1  0  0  0  0
  9  8  1  0  0  0  0
M  END
> <#>
2030

> <PLATE>
LAT026

> <ROW>
F

> <COL>
5

> <COORD>
F05

> <LATID>
LAT026F05

> <Supplier>
Chembridge

> <Suplier_CAT#>
5730009

> <Sec_Name>
231_C09

> <Concentration_(mM)>
2.5

> <IC50_(µM)>
inactive

> <Yeast_Active?>
-

> <Pubchem_CID>
5142183

$$$$
