
  -ISIS-  08130814242D

 25 27  0  0  0  0  0  0  0  0999 V2000
    0.9125    0.6458    0.0000 C   0  0  0  0  0  0  0  0  0  0  0  0
    1.5583   -0.4792    0.0000 N   0  0  0  0  0  0  0  0  0  0  0  0
   -1.6958    0.6542    0.0000 C   0  0  0  0  0  0  0  0  0  0  0  0
   -1.0417    0.2708    0.0000 C   0  0  0  0  0  0  0  0  0  0  0  0
    1.5583    0.2708    0.0000 N   0  0  0  0  0  0  0  0  0  0  0  0
   -0.3875    0.6458    0.0000 O   0  0  0  0  0  0  0  0  0  0  0  0
    0.9125    1.3958    0.0000 O   0  0  0  0  0  0  0  0  0  0  0  0
    1.5583   -2.7292    0.0000 N   0  0  0  0  0  0  0  0  0  0  0  0
   -1.6958    1.4000    0.0000 C   0  0  0  0  0  0  0  0  0  0  0  0
    0.2583    0.2708    0.0000 C   0  0  0  0  0  0  0  0  0  0  0  0
    2.2042   -0.8542    0.0000 C   0  0  0  0  0  0  0  0  0  0  0  0
    2.2042   -1.6042    0.0000 C   0  0  0  0  0  0  0  0  0  0  0  0
    1.5583   -1.9792    0.0000 C   0  0  0  0  0  0  0  0  0  0  0  0
   -2.3417    0.2708    0.0000 C   0  0  0  0  0  0  0  0  0  0  0  0
    2.2042   -3.1042    0.0000 C   0  0  0  0  0  0  0  0  0  0  0  0
   -1.0417   -0.4833    0.0000 C   0  0  0  0  0  0  0  0  0  0  0  0
   -2.3417    1.7792    0.0000 C   0  0  0  0  0  0  0  0  0  0  0  0
   -1.0417    1.7792    0.0000 C   0  0  0  0  0  0  0  0  0  0  0  0
    2.8583   -1.9792    0.0000 C   0  0  0  0  0  0  0  0  0  0  0  0
    2.8583   -2.7292    0.0000 C   0  0  0  0  0  0  0  0  0  0  0  0
   -2.3417   -0.4833    0.0000 C   0  0  0  0  0  0  0  0  0  0  0  0
   -1.0417    2.5292    0.0000 C   0  0  0  0  0  0  0  0  0  0  0  0
   -1.6958   -0.8583    0.0000 C   0  0  0  0  0  0  0  0  0  0  0  0
   -2.3417    2.5292    0.0000 C   0  0  0  0  0  0  0  0  0  0  0  0
   -1.6958    2.9000    0.0000 C   0  0  0  0  0  0  0  0  0  0  0  0
  2  5  1  0  0  0  0
  3  4  1  0  0  0  0
  4  6  1  0  0  0  0
  5  1  1  0  0  0  0
  6 10  1  0  0  0  0
  7  1  2  0  0  0  0
  8 13  2  0  0  0  0
  9  3  1  0  0  0  0
 10  1  1  0  0  0  0
 11  2  2  0  0  0  0
 12 11  1  0  0  0  0
 13 12  1  0  0  0  0
 14  3  2  0  0  0  0
 15  8  1  0  0  0  0
 16  4  2  0  0  0  0
 17  9  2  0  0  0  0
 18  9  1  0  0  0  0
 19 12  2  0  0  0  0
 20 19  1  0  0  0  0
 21 23  2  0  0  0  0
 22 18  2  0  0  0  0
 23 16  1  0  0  0  0
 24 17  1  0  0  0  0
 25 22  1  0  0  0  0
 15 20  2  0  0  0  0
 21 14  1  0  0  0  0
 25 24  2  0  0  0  0
M  END
> <#>
1872

> <PLATE>
LAT024

> <ROW>
H

> <COL>
5

> <COORD>
H05

> <LATID>
LAT024H05

> <Supplier>
Asinex

> <Suplier_CAT#>
BAS 00592043

> <Name>
Novel

> <Concentration_(mM)>
2.5

> <IC50_(µM)>
>100

> <Yeast_Active?>
-

> <Pubchem_CID>
800989

$$$$
