
  -ISIS-  08130814242D

 32 34  0  0  0  0  0  0  0  0999 V2000
    1.3417    2.6750    0.0000 S   0  0  3  0  0  0  0  0  0  0  0  0
    1.7167    2.0250    0.0000 C   0  0  0  0  0  0  0  0  0  0  0  0
    1.8750    3.2083    0.0000 N   0  0  3  0  0  0  0  0  0  0  0  0
    2.6000    3.0208    0.0000 C   0  0  0  0  0  0  0  0  0  0  0  0
    1.6792    3.9333    0.0000 C   0  0  0  0  0  0  0  0  0  0  0  0
    0.8625    3.2500    0.0000 O   0  0  0  0  0  0  0  0  0  0  0  0
    0.7292    2.2458    0.0000 O   0  0  0  0  0  0  0  0  0  0  0  0
    3.1292    3.5458    0.0000 C   0  0  0  0  0  0  0  0  0  0  0  0
    2.2125    4.4542    0.0000 C   0  0  0  0  0  0  0  0  0  0  0  0
    1.3417    1.3750    0.0000 C   0  0  0  0  0  0  0  0  0  0  0  0
    2.4667    2.0250    0.0000 C   0  0  0  0  0  0  0  0  0  0  0  0
    2.0167    5.1792    0.0000 C   0  0  0  0  0  0  0  0  0  0  0  0
    3.8542    3.3583    0.0000 N   0  0  0  0  0  0  0  0  0  0  0  0
    5.3042    2.9583    0.0000 N   0  0  0  0  0  0  0  0  0  0  0  0
    1.2917    5.3750    0.0000 C   0  0  0  0  0  0  0  0  0  0  0  0
    0.9542    4.1167    0.0000 C   0  0  0  0  0  0  0  0  0  0  0  0
    2.9292    4.2625    0.0000 O   0  0  0  0  0  0  0  0  0  0  0  0
    0.7625    4.8417    0.0000 C   0  0  0  0  0  0  0  0  0  0  0  0
    1.7167    0.7333    0.0000 C   0  0  0  0  0  0  0  0  0  0  0  0
    5.1042    3.6833    0.0000 C   0  0  0  0  0  0  0  0  0  0  0  0
    2.8417    1.3750    0.0000 C   0  0  0  0  0  0  0  0  0  0  0  0
    4.3792    3.8833    0.0000 C   0  0  0  0  0  0  0  0  0  0  0  0
    2.4667    0.7333    0.0000 C   0  0  0  0  0  0  0  0  0  0  0  0
    0.5917    1.3750    0.0000 O   0  0  0  0  0  0  0  0  0  0  0  0
    2.5417    5.7125    0.0000 C   0  0  0  0  0  0  0  0  0  0  0  0
    6.0250    2.7708    0.0000 C   0  0  0  0  0  0  0  0  0  0  0  0
    1.0917    6.0917    0.0000 C   0  0  0  0  0  0  0  0  0  0  0  0
    3.5917    1.3750    0.0000 C   0  0  0  0  0  0  0  0  0  0  0  0
    5.6375    4.2125    0.0000 C   0  0  0  0  0  0  0  0  0  0  0  0
    0.2167    0.7333    0.0000 C   0  0  0  0  0  0  0  0  0  0  0  0
    6.5542    3.2958    0.0000 C   0  0  0  0  0  0  0  0  0  0  0  0
    6.3625    4.0167    0.0000 C   0  0  0  0  0  0  0  0  0  0  0  0
  2  1  1  0  0  0  0
  3  1  1  0  0  0  0
  4  3  1  0  0  0  0
  5  3  1  0  0  0  0
  6  1  2  0  0  0  0
  7  1  2  0  0  0  0
  8  4  1  0  0  0  0
  9  5  1  0  0  0  0
 10  2  2  0  0  0  0
 11  2  1  0  0  0  0
 12  9  2  0  0  0  0
 13  8  1  0  0  0  0
 14 20  2  0  0  0  0
 15 18  2  0  0  0  0
 16  5  2  0  0  0  0
 17  8  2  0  0  0  0
 18 16  1  0  0  0  0
 19 10  1  0  0  0  0
 20 22  1  0  0  0  0
 21 11  2  0  0  0  0
 22 13  1  0  0  0  0
 23 21  1  0  0  0  0
 24 10  1  0  0  0  0
 25 12  1  0  0  0  0
 26 14  1  0  0  0  0
 27 15  1  0  0  0  0
 28 21  1  0  0  0  0
 29 20  1  0  0  0  0
 30 24  1  0  0  0  0
 31 32  1  0  0  0  0
 32 29  2  0  0  0  0
 23 19  2  0  0  0  0
 12 15  1  0  0  0  0
 31 26  2  0  0  0  0
M  END
> <#>
1653

> <PLATE>
LAT021

> <ROW>
E

> <COL>
8

> <COORD>
E08

> <LATID>
LAT021E08

> <Supplier>
Chembridge

> <Suplier_CAT#>
7984069

> <Name>
Novel

> <Concentration_(mM)>
2.5

> <IC50_(µM)>
32

> <Yeast_Active?>
-

> <Pubchem_CID>
2982431

$$$$
