
  -ISIS-  08130814242D

 32 35  0  0  0  0  0  0  0  0999 V2000
    0.9000    1.0333    0.0000 C   0  0  0  0  0  0  0  0  0  0  0  0
   -0.1000    1.6208    0.0000 C   0  0  0  0  0  0  0  0  0  0  0  0
   -0.4458    1.0333    0.0000 C   0  0  0  0  0  0  0  0  0  0  0  0
    0.5792    1.6208    0.0000 C   0  0  3  0  0  0  0  0  0  0  0  0
    0.5792    0.4500    0.0000 C   0  0  0  0  0  0  0  0  0  0  0  0
   -0.1000    0.4500    0.0000 N   0  0  0  0  0  0  0  0  0  0  0  0
   -0.4458    2.1958    0.0000 C   0  0  0  0  0  0  0  0  0  0  0  0
    1.5792    1.0333    0.0000 C   0  0  0  0  0  0  0  0  0  0  0  0
    1.1542    2.6333    0.0000 C   0  0  0  0  0  0  0  0  0  0  0  0
   -1.1125    1.0333    0.0000 C   0  0  0  0  0  0  0  0  0  0  0  0
   -1.4500    1.6208    0.0000 C   0  0  3  0  0  0  0  0  0  0  0  0
   -1.1125    2.1958    0.0000 C   0  0  0  0  0  0  0  0  0  0  0  0
   -2.1125    1.6208    0.0000 C   0  0  0  0  0  0  0  0  0  0  0  0
   -0.1208    2.7708    0.0000 O   0  0  0  0  0  0  0  0  0  0  0  0
    0.8375    3.2125    0.0000 C   0  0  0  0  0  0  0  0  0  0  0  0
    1.9042    1.6208    0.0000 O   0  0  0  0  0  0  0  0  0  0  0  0
   -2.4500    1.0333    0.0000 C   0  0  0  0  0  0  0  0  0  0  0  0
   -2.4500    2.1958    0.0000 C   0  0  0  0  0  0  0  0  0  0  0  0
    1.9042    0.4125    0.0000 O   0  0  0  0  0  0  0  0  0  0  0  0
    0.9167   -0.1292    0.0000 C   0  0  0  0  0  0  0  0  0  0  0  0
    0.1500    3.2208    0.0000 F   0  0  0  0  0  0  0  0  0  0  0  0
   -3.4625    1.6208    0.0000 C   0  0  0  0  0  0  0  0  0  0  0  0
   -3.1208    1.0333    0.0000 C   0  0  0  0  0  0  0  0  0  0  0  0
   -3.1208    2.1958    0.0000 C   0  0  0  0  0  0  0  0  0  0  0  0
    1.8375    2.6333    0.0000 C   0  0  0  0  0  0  0  0  0  0  0  0
   -4.1333    1.6208    0.0000 O   0  0  0  0  0  0  0  0  0  0  0  0
    1.1542    3.7833    0.0000 C   0  0  0  0  0  0  0  0  0  0  0  0
    2.5792    0.4125    0.0000 C   0  0  0  0  0  0  0  0  0  0  0  0
   -4.4708    1.0333    0.0000 C   0  0  0  0  0  0  0  0  0  0  0  0
    2.1542    3.2125    0.0000 C   0  0  0  0  0  0  0  0  0  0  0  0
    2.9042   -0.1792    0.0000 C   0  0  0  0  0  0  0  0  0  0  0  0
    1.8375    3.7833    0.0000 C   0  0  0  0  0  0  0  0  0  0  0  0
  2  4  1  0  0  0  0
  3  6  1  0  0  0  0
  4  1  1  0  0  0  0
  5  1  2  0  0  0  0
  6  5  1  0  0  0  0
  7  2  1  0  0  0  0
  8  1  1  0  0  0  0
  9  4  1  0  0  0  0
 10  3  1  0  0  0  0
 11 10  1  0  0  0  0
 12  7  1  0  0  0  0
 13 11  1  0  0  0  0
 14  7  2  0  0  0  0
 15  9  1  0  0  0  0
 16  8  2  0  0  0  0
 17 13  1  0  0  0  0
 18 13  2  0  0  0  0
 19  8  1  0  0  0  0
 20  5  1  0  0  0  0
 21 15  1  0  0  0  0
 22 24  2  0  0  0  0
 23 17  2  0  0  0  0
 24 18  1  0  0  0  0
 25  9  2  0  0  0  0
 26 22  1  0  0  0  0
 27 15  2  0  0  0  0
 28 19  1  0  0  0  0
 29 26  1  0  0  0  0
 30 25  1  0  0  0  0
 31 28  1  0  0  0  0
 32 30  2  0  0  0  0
  3  2  2  0  0  0  0
 11 12  1  0  0  0  0
 32 27  1  0  0  0  0
 22 23  1  0  0  0  0
M  END
> <#>
1846

> <PLATE>
LAT024

> <ROW>
F

> <COL>
2

> <COORD>
F02

> <LATID>
LAT024F02

> <Supplier>
Chembridge

> <Suplier_CAT#>
5714161

> <Name>
Novel

> <Sec_Name>
226_B10

> <Concentration_(mM)>
2.5

> <IC50_(µM)>
19

> <Yeast_Active?>
-

> <Pubchem_CID>
997848

$$$$
