
  -ISIS-  08130814242D

 22 24  0  0  0  0  0  0  0  0999 V2000
    0.4375   -0.9667    0.0000 C   0  0  3  0  0  0  0  0  0  0  0  0
    0.1792    4.3875    0.0000 N   0  3  0  0  0  0  0  0  0  0  0  0
    0.0542   -0.0667    0.0000 O   0  0  0  0  0  0  0  0  0  0  0  0
    1.4000   -0.9042    0.0000 N   0  0  0  0  0  0  0  0  0  0  0  0
    0.8167    0.5708    0.0000 C   0  0  3  0  0  0  0  0  0  0  0  0
    0.3542    3.4333    0.0000 C   0  0  0  0  0  0  0  0  0  0  0  0
    0.9375    5.0042    0.0000 O   0  5  0  0  0  0  0  0  0  0  0  0
   -0.7458    4.7500    0.0000 O   0  0  0  0  0  0  0  0  0  0  0  0
    1.6375    0.0125    0.0000 C   0  0  0  0  0  0  0  0  0  0  0  0
    0.6542    1.5125    0.0000 C   0  0  0  0  0  0  0  0  0  0  0  0
   -0.0625   -1.8042    0.0000 C   0  0  0  0  0  0  0  0  0  0  0  0
   -0.4000    2.8125    0.0000 C   0  0  0  0  0  0  0  0  0  0  0  0
    1.2542    3.0708    0.0000 C   0  0  0  0  0  0  0  0  0  0  0  0
   -0.2458    1.8708    0.0000 C   0  0  0  0  0  0  0  0  0  0  0  0
    1.4000    2.1125    0.0000 C   0  0  0  0  0  0  0  0  0  0  0  0
    1.0792   -1.6875    0.0000 C   0  0  0  0  0  0  0  0  0  0  0  0
    0.4375   -2.6500    0.0000 C   0  0  0  0  0  0  0  0  0  0  0  0
   -1.0208   -1.8042    0.0000 C   0  0  0  0  0  0  0  0  0  0  0  0
    0.7792   -2.6042    0.0000 C   0  0  0  0  0  0  0  0  0  0  0  0
   -0.0458   -3.4875    0.0000 C   0  0  0  0  0  0  0  0  0  0  0  0
   -1.5000   -2.6500    0.0000 C   0  0  0  0  0  0  0  0  0  0  0  0
   -1.0208   -3.4875    0.0000 C   0  0  0  0  0  0  0  0  0  0  0  0
  2  6  1  0  0  0  0
  3  1  1  0  0  0  0
  4  1  1  0  0  0  0
  5  3  1  0  0  0  0
  6 13  1  0  0  0  0
  7  2  1  0  0  0  0
  8  2  2  0  0  0  0
  9  4  1  0  0  0  0
 10  5  1  0  0  0  0
 11  1  1  0  0  0  0
 12 14  1  0  0  0  0
 13 15  2  0  0  0  0
 14 10  2  0  0  0  0
 15 10  1  0  0  0  0
 16  1  1  0  0  0  0
 17 11  2  0  0  0  0
 18 11  1  0  0  0  0
 19 16  1  0  0  0  0
 20 17  1  0  0  0  0
 21 18  2  0  0  0  0
 22 21  1  0  0  0  0
  9  5  1  0  0  0  0
 20 22  2  0  0  0  0
 12  6  2  0  0  0  0
M  CHG  2   2   1   7  -1
M  END
> <#>
1989

> <PLATE>
LAT025

> <ROW>
E

> <COL>
10

> <COORD>
E10

> <LATID>
LAT025E10

> <Supplier>
Chembridge

> <Suplier_CAT#>
5522277

> <Sec_Name>
144_G08

> <Concentration_(mM)>
2.5

> <IC50_(µM)>
inactive

> <Yeast_Active?>
-

> <Pubchem_CID>
3606435

$$$$
