
  -ISIS-  08130814242D

 19 21  0  0  0  0  0  0  0  0999 V2000
    3.6292   -2.3500    0.0000 C   0  0  0  0  0  0  0  0  0  0  0  0
    4.1042   -3.0042    0.0000 C   0  0  0  0  0  0  0  0  0  0  0  0
    3.8792   -1.5542    0.0000 C   0  0  0  0  0  0  0  0  0  0  0  0
    3.6500   -3.6792    0.0000 N   0  0  3  0  0  0  0  0  0  0  0  0
    3.8542   -0.2292    0.0000 N   0  0  0  0  0  0  0  0  0  0  0  0
    3.4000   -0.9000    0.0000 C   0  0  0  0  0  0  0  0  0  0  0  0
    2.8500   -2.6000    0.0000 C   0  0  0  0  0  0  0  0  0  0  0  0
    4.6500   -0.4792    0.0000 C   0  0  0  0  0  0  0  0  0  0  0  0
    4.6542   -1.3000    0.0000 S   0  0  0  0  0  0  0  0  0  0  0  0
    2.8500   -3.4292    0.0000 C   0  0  0  0  0  0  0  0  0  0  0  0
    4.9500   -3.0000    0.0000 O   0  0  0  0  0  0  0  0  0  0  0  0
    2.5542   -0.9000    0.0000 O   0  0  0  0  0  0  0  0  0  0  0  0
    5.3042    0.0000    0.0000 O   0  0  0  0  0  0  0  0  0  0  0  0
    4.4292   -3.9000    0.0000 C   0  0  0  0  0  0  0  0  0  0  0  0
    2.1292   -2.2000    0.0000 C   0  0  0  0  0  0  0  0  0  0  0  0
    2.1292   -3.8500    0.0000 C   0  0  0  0  0  0  0  0  0  0  0  0
    4.8500   -4.6000    0.0000 C   0  0  0  0  0  0  0  0  0  0  0  0
    1.4042   -2.6042    0.0000 C   0  0  0  0  0  0  0  0  0  0  0  0
    1.4042   -3.4500    0.0000 C   0  0  0  0  0  0  0  0  0  0  0  0
  2  1  1  0  0  0  0
  3  1  2  0  0  0  0
  4  2  1  0  0  0  0
  5  6  1  0  0  0  0
  6  3  1  0  0  0  0
  7  1  1  0  0  0  0
  8  9  1  0  0  0  0
  9  3  1  0  0  0  0
 10  7  1  0  0  0  0
 11  2  2  0  0  0  0
 12  6  2  0  0  0  0
 13  8  2  0  0  0  0
 14  4  1  0  0  0  0
 15  7  2  0  0  0  0
 16 10  2  0  0  0  0
 17 14  1  0  0  0  0
 18 15  1  0  0  0  0
 19 18  2  0  0  0  0
 10  4  1  0  0  0  0
  8  5  1  0  0  0  0
 19 16  1  0  0  0  0
M  END
> <#>
971

> <PLATE>
LAT013

> <ROW>
C

> <COL>
3

> <COORD>
C03

> <LATID>
LAT013C03

> <Supplier>
Chembridge

> <Suplier_CAT#>
5751011

> <Name>
Novel

> <Sec_Name>
238_G09

> <Concentration_(mM)>
2.5

> <IC50_(µM)>
26

> <Yeast_Active?>
-

> <Pubchem_CID>
NULL

$$$$
