
  -ISIS-  08130814242D

 31 33  0  0  0  0  0  0  0  0999 V2000
    3.2625    2.8583    0.0000 S   0  0  3  0  0  0  0  0  0  0  0  0
    1.0125    1.5625    0.0000 C   0  0  3  0  0  0  0  0  0  0  0  0
    2.8875    2.2083    0.0000 C   0  0  0  0  0  0  0  0  0  0  0  0
    3.9875    2.6708    0.0000 N   0  0  0  0  0  0  0  0  0  0  0  0
    7.4167    2.4208    0.0000 C   0  0  0  0  0  0  0  0  0  0  0  0
    1.7625    1.5625    0.0000 C   0  0  0  0  0  0  0  0  0  0  0  0
    2.1292    2.2083    0.0000 C   0  0  0  0  0  0  0  0  0  0  0  0
    7.6042    1.6958    0.0000 N   0  0  0  0  0  0  0  0  0  0  0  0
    3.5167    3.5625    0.0000 O   0  0  0  0  0  0  0  0  0  0  0  0
    2.5792    3.1750    0.0000 O   0  0  0  0  0  0  0  0  0  0  0  0
    6.6917    2.6125    0.0000 C   0  0  0  0  0  0  0  0  0  0  0  0
    7.9917    0.2458    0.0000 N   0  0  0  0  0  0  0  0  0  0  0  0
    7.9417    2.9583    0.0000 O   0  0  0  0  0  0  0  0  0  0  0  0
    0.8167    0.8375    0.0000 F   0  0  0  0  0  0  0  0  0  0  0  0
    1.0792    2.3083    0.0000 F   0  0  0  0  0  0  0  0  0  0  0  0
    0.2750    1.6958    0.0000 F   0  0  0  0  0  0  0  0  0  0  0  0
    6.4917    3.3375    0.0000 C   0  0  0  0  0  0  0  0  0  0  0  0
    6.1542    2.0833    0.0000 C   0  0  0  0  0  0  0  0  0  0  0  0
    4.5167    3.1958    0.0000 C   0  0  0  0  0  0  0  0  0  0  0  0
    8.3292    1.5000    0.0000 C   0  0  0  0  0  0  0  0  0  0  0  0
    8.5292    0.7750    0.0000 C   0  0  0  0  0  0  0  0  0  0  0  0
    5.2417    3.0000    0.0000 C   0  0  0  0  0  0  0  0  0  0  0  0
    5.7667    3.5333    0.0000 C   0  0  0  0  0  0  0  0  0  0  0  0
    5.4375    2.2833    0.0000 C   0  0  0  0  0  0  0  0  0  0  0  0
    3.2625    1.5625    0.0000 C   0  0  0  0  0  0  0  0  0  0  0  0
    2.1292    0.9125    0.0000 C   0  0  0  0  0  0  0  0  0  0  0  0
    2.8875    0.9125    0.0000 C   0  0  0  0  0  0  0  0  0  0  0  0
    8.1917   -0.4792    0.0000 C   0  0  0  0  0  0  0  0  0  0  0  0
    9.2542    0.5833    0.0000 C   0  0  0  0  0  0  0  0  0  0  0  0
    8.9167   -0.6667    0.0000 C   0  0  0  0  0  0  0  0  0  0  0  0
    9.4417   -0.1417    0.0000 C   0  0  0  0  0  0  0  0  0  0  0  0
  2  6  1  0  0  0  0
  3  1  1  0  0  0  0
  4  1  1  0  0  0  0
  5 11  1  0  0  0  0
  6  7  2  0  0  0  0
  7  3  1  0  0  0  0
  8  5  1  0  0  0  0
  9  1  2  0  0  0  0
 10  1  2  0  0  0  0
 11 18  2  0  0  0  0
 12 21  2  0  0  0  0
 13  5  2  0  0  0  0
 14  2  1  0  0  0  0
 15  2  1  0  0  0  0
 16  2  1  0  0  0  0
 17 23  2  0  0  0  0
 18 24  1  0  0  0  0
 19  4  1  0  0  0  0
 20  8  1  0  0  0  0
 21 20  1  0  0  0  0
 22 19  1  0  0  0  0
 23 22  1  0  0  0  0
 24 22  2  0  0  0  0
 25  3  2  0  0  0  0
 26 27  2  0  0  0  0
 27 25  1  0  0  0  0
 28 12  1  0  0  0  0
 29 21  1  0  0  0  0
 30 31  1  0  0  0  0
 31 29  2  0  0  0  0
  6 26  1  0  0  0  0
 17 11  1  0  0  0  0
 30 28  2  0  0  0  0
M  END
> <#>
1519

> <PLATE>
LAT019

> <ROW>
G

> <COL>
11

> <COORD>
G11

> <LATID>
LAT019G11

> <Supplier>
Chembridge

> <Suplier_CAT#>
7872941

> <Name>
Novel

> <Concentration_(mM)>
2.5

> <IC50_(µM)>
100

> <Yeast_Active?>
-

> <Pubchem_CID>
NULL

$$$$
