
  -ISIS-  08130814242D

 22 23  0  0  0  0  0  0  0  0999 V2000
   -4.7500   -4.7167    0.0000 N   0  0  3  0  0  0  0  0  0  0  0  0
   -6.1875   -3.8667    0.0000 C   0  0  0  0  0  0  0  0  0  0  0  0
   -3.5000   -3.6000    0.0000 C   0  0  0  0  0  0  0  0  0  0  0  0
   -4.1708   -2.0875    0.0000 C   0  0  0  0  0  0  0  0  0  0  0  0
   -5.7958   -2.2500    0.0000 S   0  0  0  0  0  0  0  0  0  0  0  0
   -3.3500   -0.6500    0.0000 C   0  0  0  0  0  0  0  0  0  0  0  0
   -1.7208   -0.6500    0.0000 C   0  0  0  0  0  0  0  0  0  0  0  0
   -4.5958   -6.3542    0.0000 C   0  0  0  0  0  0  0  0  0  0  0  0
   -7.7042   -4.4875    0.0000 S   0  0  0  0  0  0  0  0  0  0  0  0
   -5.9333   -7.3375    0.0000 C   0  0  0  0  0  0  0  0  0  0  0  0
   -1.8833   -3.9375    0.0000 O   0  0  0  0  0  0  0  0  0  0  0  0
   -0.9000    0.7625    0.0000 C   0  0  0  0  0  0  0  0  0  0  0  0
   -0.9000   -2.0542    0.0000 C   0  0  0  0  0  0  0  0  0  0  0  0
   -5.7500   -9.0042    0.0000 O   0  0  0  0  0  0  0  0  0  0  0  0
    0.7375    0.7625    0.0000 C   0  0  0  0  0  0  0  0  0  0  0  0
    0.7375   -2.0542    0.0000 C   0  0  0  0  0  0  0  0  0  0  0  0
   -7.3667   -6.5792    0.0000 O   0  0  0  0  0  0  0  0  0  0  0  0
    1.5500   -0.6500    0.0000 C   0  0  0  0  0  0  0  0  0  0  0  0
   -1.7208    2.1625    0.0000 O   0  0  0  0  0  0  0  0  0  0  0  0
    1.5542   -3.4667    0.0000 O   0  0  0  0  0  0  0  0  0  0  0  0
   -0.9125    3.5708    0.0000 C   0  0  0  0  0  0  0  0  0  0  0  0
    3.1792   -3.4667    0.0000 C   0  0  0  0  0  0  0  0  0  0  0  0
  2  1  1  0  0  0  0
  3  1  1  0  0  0  0
  4  3  1  0  0  0  0
  5  2  1  0  0  0  0
  6  4  2  0  0  0  0
  7  6  1  0  0  0  0
  8  1  1  0  0  0  0
  9  2  2  0  0  0  0
 10  8  1  0  0  0  0
 11  3  2  0  0  0  0
 12  7  1  0  0  0  0
 13  7  2  0  0  0  0
 14 10  2  0  0  0  0
 15 12  2  0  0  0  0
 16 13  1  0  0  0  0
 17 10  1  0  0  0  0
 18 16  2  0  0  0  0
 19 12  1  0  0  0  0
 20 16  1  0  0  0  0
 21 19  1  0  0  0  0
 22 20  1  0  0  0  0
  5  4  1  0  0  0  0
 15 18  1  0  0  0  0
M  END
> <#>
1806

> <PLATE>
LAT023

> <ROW>
F

> <COL>
7

> <COORD>
F07

> <LATID>
LAT023F07

> <Supplier>
Chembridge

> <Suplier_CAT#>
5629185

> <Name>
Novel

> <Sec_Name>
191_H03

> <Concentration_(mM)>
2.5

> <IC50_(µM)>
>100

> <Yeast_Active?>
-

> <Pubchem_CID>
1201158

$$$$
