
  -ISIS-  08130814242D

 21 22  0  0  0  0  0  0  0  0999 V2000
    2.1917  -10.1000    0.0000 S   0  0  3  0  0  0  0  0  0  0  0  0
    2.9500   -7.5000    0.0000 N   0  3  0  0  0  0  0  0  0  0  0  0
    2.9500  -10.1000    0.0000 N   0  0  0  0  0  0  0  0  0  0  0  0
    3.3292   -9.4500    0.0000 C   0  0  0  0  0  0  0  0  0  0  0  0
    3.3292   -8.1542    0.0000 C   0  0  0  0  0  0  0  0  0  0  0  0
    2.9500   -8.8042    0.0000 C   0  0  0  0  0  0  0  0  0  0  0  0
    1.4500  -10.0875    0.0000 C   0  0  0  0  0  0  0  0  0  0  0  0
    2.1917   -9.3500    0.0000 O   0  0  0  0  0  0  0  0  0  0  0  0
    2.1917  -10.8500    0.0000 O   0  0  0  0  0  0  0  0  0  0  0  0
    3.3292   -6.8500    0.0000 O   0  5  0  0  0  0  0  0  0  0  0  0
    2.1917   -7.5042    0.0000 O   0  0  0  0  0  0  0  0  0  0  0  0
    4.0792   -9.4500    0.0000 C   0  0  0  0  0  0  0  0  0  0  0  0
    4.0792   -8.1500    0.0000 C   0  0  0  0  0  0  0  0  0  0  0  0
    4.4500   -8.8000    0.0000 C   0  0  0  0  0  0  0  0  0  0  0  0
    1.0792  -10.7375    0.0000 C   0  0  0  0  0  0  0  0  0  0  0  0
    1.0792   -9.4375    0.0000 C   0  0  0  0  0  0  0  0  0  0  0  0
   -0.0458  -10.0875    0.0000 C   0  0  0  0  0  0  0  0  0  0  0  0
    0.3292   -9.4375    0.0000 C   0  0  0  0  0  0  0  0  0  0  0  0
    0.3292  -10.7375    0.0000 C   0  0  0  0  0  0  0  0  0  0  0  0
   -0.7958  -10.1000    0.0000 Cl  0  0  0  0  0  0  0  0  0  0  0  0
    4.4500  -10.1000    0.0000 C   0  0  0  0  0  0  0  0  0  0  0  0
  2  5  1  0  0  0  0
  3  1  1  0  0  0  0
  4  3  1  0  0  0  0
  5  6  2  0  0  0  0
  6  4  1  0  0  0  0
  7  1  1  0  0  0  0
  8  1  2  0  0  0  0
  9  1  2  0  0  0  0
 10  2  1  0  0  0  0
 11  2  2  0  0  0  0
 12  4  2  0  0  0  0
 13 14  2  0  0  0  0
 14 12  1  0  0  0  0
 15  7  1  0  0  0  0
 16  7  2  0  0  0  0
 17 18  2  0  0  0  0
 18 16  1  0  0  0  0
 19 15  2  0  0  0  0
 20 17  1  0  0  0  0
 21 12  1  0  0  0  0
 17 19  1  0  0  0  0
 13  5  1  0  0  0  0
M  CHG  2   2   1  10  -1
M  END
> <#>
1794

> <PLATE>
LAT023

> <ROW>
B

> <COL>
6

> <COORD>
B06

> <LATID>
LAT023B06

> <Supplier>
Chembridge

> <Suplier_CAT#>
5570721

> <Name>
Novel

> <Sec_Name>
174_G11

> <Concentration_(mM)>
2.5

> <IC50_(µM)>
32

> <Yeast_Active?>
-

> <Pubchem_CID>
798876

$$$$
