
  -ISIS-  08130814242D

 26 28  0  0  0  0  0  0  0  0999 V2000
    0.8042   -0.7875    0.0000 N   0  0  3  0  0  0  0  0  0  0  0  0
    1.4042   -1.4500    0.0000 C   0  0  0  0  0  0  0  0  0  0  0  0
    1.2500   -0.0292    0.0000 C   0  0  0  0  0  0  0  0  0  0  0  0
    2.2042   -1.0667    0.0000 S   0  0  0  0  0  0  0  0  0  0  0  0
    2.1042   -0.2292    0.0000 C   0  0  0  0  0  0  0  0  0  0  0  0
   -0.0708   -0.7875    0.0000 C   0  0  0  0  0  0  0  0  0  0  0  0
   -0.5125   -0.0292    0.0000 N   0  0  0  0  0  0  0  0  0  0  0  0
    2.7875    0.3500    0.0000 C   0  0  0  0  0  0  0  0  0  0  0  0
    1.2667   -2.3292    0.0000 O   0  0  0  0  0  0  0  0  0  0  0  0
    0.8875    0.7958    0.0000 O   0  0  0  0  0  0  0  0  0  0  0  0
    2.6292    1.2125    0.0000 C   0  0  0  0  0  0  0  0  0  0  0  0
   -1.3958   -0.0292    0.0000 C   0  0  0  0  0  0  0  0  0  0  0  0
    3.3042    1.7500    0.0000 C   0  0  0  0  0  0  0  0  0  0  0  0
   -1.8333    0.7333    0.0000 C   0  0  0  0  0  0  0  0  0  0  0  0
    3.1667    2.6125    0.0000 C   0  0  0  0  0  0  0  0  0  0  0  0
   -1.3958    1.4958    0.0000 O   0  0  0  0  0  0  0  0  0  0  0  0
   -1.8333   -0.7875    0.0000 C   0  0  0  0  0  0  0  0  0  0  0  0
   -2.7125    0.7333    0.0000 C   0  0  0  0  0  0  0  0  0  0  0  0
    2.3292    2.9333    0.0000 C   0  0  0  0  0  0  0  0  0  0  0  0
    3.8500    3.1708    0.0000 C   0  0  0  0  0  0  0  0  0  0  0  0
   -1.8208    2.2500    0.0000 C   0  0  0  0  0  0  0  0  0  0  0  0
   -2.7125   -0.7875    0.0000 C   0  0  0  0  0  0  0  0  0  0  0  0
   -3.1500   -0.0292    0.0000 C   0  0  0  0  0  0  0  0  0  0  0  0
    3.7042    4.0042    0.0000 C   0  0  0  0  0  0  0  0  0  0  0  0
    2.1875    3.8125    0.0000 C   0  0  0  0  0  0  0  0  0  0  0  0
    2.8875    4.3667    0.0000 C   0  0  0  0  0  0  0  0  0  0  0  0
  2  1  1  0  0  0  0
  3  1  1  0  0  0  0
  4  2  1  0  0  0  0
  5  3  1  0  0  0  0
  6  1  1  0  0  0  0
  7  6  1  0  0  0  0
  8  5  2  0  0  0  0
  9  2  2  0  0  0  0
 10  3  2  0  0  0  0
 11  8  1  0  0  0  0
 12  7  1  0  0  0  0
 13 11  2  0  0  0  0
 14 12  2  0  0  0  0
 15 13  1  0  0  0  0
 16 14  1  0  0  0  0
 17 12  1  0  0  0  0
 18 14  1  0  0  0  0
 19 15  2  0  0  0  0
 20 15  1  0  0  0  0
 21 16  1  0  0  0  0
 22 17  2  0  0  0  0
 23 22  1  0  0  0  0
 24 20  2  0  0  0  0
 25 19  1  0  0  0  0
 26 24  1  0  0  0  0
  4  5  1  0  0  0  0
 23 18  2  0  0  0  0
 26 25  2  0  0  0  0
M  END
> <#>
741

> <PLATE>
LAT010

> <ROW>
E

> <COL>
4

> <COORD>
E04

> <LATID>
LAT010E04

> <Supplier>
Chembridge

> <Suplier_CAT#>
5580799

> <Name>
Novel

> <Sec_Name>
180_A06

> <Concentration_(mM)>
2.5

> <IC50_(µM)>
22

> <Yeast_Active?>
-

> <Pubchem_CID>
1350555

$$$$
