
  -ISIS-  08130814242D

 23 24  0  0  0  0  0  0  0  0999 V2000
   -2.6500   -0.5667    0.0000 N   0  3  0  0  0  0  0  0  0  0  0  0
    1.0000    1.0000    0.0000 C   0  0  3  0  0  0  0  0  0  0  0  0
   -2.6500    0.2000    0.0000 C   0  0  0  0  0  0  0  0  0  0  0  0
   -1.9708    0.6000    0.0000 C   0  0  0  0  0  0  0  0  0  0  0  0
   -1.9708    1.3958    0.0000 C   0  0  0  0  0  0  0  0  0  0  0  0
    1.0000    1.8000    0.0000 C   0  0  0  0  0  0  0  0  0  0  0  0
   -1.2708    1.7958    0.0000 N   0  0  0  0  0  0  0  0  0  0  0  0
   -3.2958   -1.0167    0.0000 O   0  5  0  0  0  0  0  0  0  0  0  0
   -2.0125   -1.0000    0.0000 O   0  0  0  0  0  0  0  0  0  0  0  0
   -2.6500    1.7708    0.0000 C   0  0  0  0  0  0  0  0  0  0  0  0
    0.3292    2.1625    0.0000 C   0  0  0  0  0  0  0  0  0  0  0  0
   -0.3000    1.7458    0.0000 C   0  0  0  0  0  0  0  0  0  0  0  0
   -3.3458    0.6000    0.0000 C   0  0  0  0  0  0  0  0  0  0  0  0
    0.2042    1.0000    0.0000 F   0  0  0  0  0  0  0  0  0  0  0  0
    1.0000    0.2458    0.0000 F   0  0  0  0  0  0  0  0  0  0  0  0
    1.7792    1.0000    0.0000 F   0  0  0  0  0  0  0  0  0  0  0  0
   -3.3458    1.3958    0.0000 C   0  0  0  0  0  0  0  0  0  0  0  0
   -2.6500    2.5500    0.0000 O   0  0  0  0  0  0  0  0  0  0  0  0
    1.6500    2.1625    0.0000 C   0  0  0  0  0  0  0  0  0  0  0  0
    0.3292    2.9625    0.0000 C   0  0  0  0  0  0  0  0  0  0  0  0
   -1.9958    2.9333    0.0000 C   0  0  0  0  0  0  0  0  0  0  0  0
    1.6500    2.9458    0.0000 C   0  0  0  0  0  0  0  0  0  0  0  0
    1.0000    3.3333    0.0000 C   0  0  0  0  0  0  0  0  0  0  0  0
  2  6  1  0  0  0  0
  3  1  1  0  0  0  0
  4  3  2  0  0  0  0
  5  4  1  0  0  0  0
  6 11  1  0  0  0  0
  7  5  1  0  0  0  0
  8  1  1  0  0  0  0
  9  1  2  0  0  0  0
 10 17  1  0  0  0  0
 11 12  1  0  0  0  0
 12  7  1  0  0  0  0
 13  3  1  0  0  0  0
 14  2  1  0  0  0  0
 15  2  1  0  0  0  0
 16  2  1  0  0  0  0
 17 13  2  0  0  0  0
 18 10  1  0  0  0  0
 19  6  2  0  0  0  0
 20 11  2  0  0  0  0
 21 18  1  0  0  0  0
 22 23  2  0  0  0  0
 23 20  1  0  0  0  0
  5 10  2  0  0  0  0
 19 22  1  0  0  0  0
M  CHG  2   1   1   8  -1
M  END
> <#>
1074

> <PLATE>
LAT014

> <ROW>
B

> <COL>
6

> <COORD>
B06

> <LATID>
LAT014B06

> <Supplier>
Chembridge

> <Suplier_CAT#>
5576325

> <Name>
Novel

> <Sec_Name>
178_B09

> <Concentration_(mM)>
2.5

> <IC50_(µM)>
>100

> <Yeast_Active?>
-

> <Pubchem_CID>
872285

$$$$
