
  -ISIS-  08130814242D

 25 27  0  0  0  0  0  0  0  0999 V2000
    1.6667   -1.4042    0.0000 N   0  0  3  0  0  0  0  0  0  0  0  0
    1.8417   -0.2042    0.0000 C   0  0  3  0  0  0  0  0  0  0  0  0
    2.1917   -0.8667    0.0000 C   0  0  0  0  0  0  0  0  0  0  0  0
    1.1042   -0.3375    0.0000 C   0  0  0  0  0  0  0  0  0  0  0  0
    1.0000   -1.0792    0.0000 C   0  0  0  0  0  0  0  0  0  0  0  0
    2.6875    0.3625    0.0000 C   0  0  0  0  0  0  0  0  0  0  0  0
    3.4042   -0.0125    0.0000 C   0  0  0  0  0  0  0  0  0  0  0  0
    4.0417    0.3958    0.0000 C   0  0  0  0  0  0  0  0  0  0  0  0
    1.8000   -2.1417    0.0000 C   0  0  0  0  0  0  0  0  0  0  0  0
    1.2250   -2.6292    0.0000 C   0  0  0  0  0  0  0  0  0  0  0  0
    2.9375   -0.9750    0.0000 O   0  0  0  0  0  0  0  0  0  0  0  0
    4.7042    0.0458    0.0000 C   0  0  0  0  0  0  0  0  0  0  0  0
    3.4375   -0.6375    0.0000 O   0  0  0  0  0  0  0  0  0  0  0  0
    1.6042    0.6458    0.0000 O   0  0  0  0  0  0  0  0  0  0  0  0
    1.3542   -3.3667    0.0000 O   0  0  0  0  0  0  0  0  0  0  0  0
    0.5167   -2.3667    0.0000 N   0  0  0  0  0  0  0  0  0  0  0  0
    0.5167    0.1333    0.0000 C   0  0  0  0  0  0  0  0  0  0  0  0
    4.7375   -0.7042    0.0000 O   0  0  0  0  0  0  0  0  0  0  0  0
    0.3042   -1.3542    0.0000 C   0  0  0  0  0  0  0  0  0  0  0  0
    4.0042    1.1458    0.0000 C   0  0  0  0  0  0  0  0  0  0  0  0
    5.3375    0.4500    0.0000 C   0  0  0  0  0  0  0  0  0  0  0  0
   -0.1833   -0.1500    0.0000 C   0  0  0  0  0  0  0  0  0  0  0  0
   -0.2875   -0.8917    0.0000 C   0  0  0  0  0  0  0  0  0  0  0  0
    4.6375    1.5458    0.0000 C   0  0  0  0  0  0  0  0  0  0  0  0
    5.3042    1.2000    0.0000 C   0  0  0  0  0  0  0  0  0  0  0  0
  2  3  1  0  0  0  0
  3  1  1  0  0  0  0
  4  5  2  0  0  0  0
  5  1  1  0  0  0  0
  6  2  1  0  0  0  0
  7  6  1  0  0  0  0
  8  7  1  0  0  0  0
  9  1  1  0  0  0  0
 10  9  1  0  0  0  0
 11  3  2  0  0  0  0
 12  8  1  0  0  0  0
 13  7  2  0  0  0  0
 14  2  1  0  0  0  0
 15 10  2  0  0  0  0
 16 10  1  0  0  0  0
 17  4  1  0  0  0  0
 18 12  1  0  0  0  0
 19  5  1  0  0  0  0
 20  8  2  0  0  0  0
 21 12  2  0  0  0  0
 22 23  1  0  0  0  0
 23 19  2  0  0  0  0
 24 20  1  0  0  0  0
 25 24  2  0  0  0  0
  4  2  1  0  0  0  0
 22 17  2  0  0  0  0
 25 21  1  0  0  0  0
M  END
> <#>
1299

> <PLATE>
LAT017

> <ROW>
C

> <COL>
4

> <COORD>
C04

> <LATID>
LAT017C04

> <Supplier>
Chembridge

> <Suplier_CAT#>
7049868

> <Name>
Novel

> <Concentration_(mM)>
2.5

> <IC50_(µM)>
inactive

> <Yeast_Active?>
-

> <Pubchem_CID>
796073

$$$$
