
  -ISIS-  08130814242D

 26 27  0  0  0  0  0  0  0  0999 V2000
    3.1625   -1.8375    0.0000 C   0  0  0  0  0  0  0  0  0  0  0  0
    2.3792   -1.5917    0.0000 C   0  0  0  0  0  0  0  0  0  0  0  0
    3.5750   -0.4625    0.0000 C   0  0  0  0  0  0  0  0  0  0  0  0
    3.7625   -1.2750    0.0000 C   0  0  3  0  0  0  0  0  0  0  0  0
    4.5417   -1.5167    0.0000 N   0  0  3  0  0  0  0  0  0  0  0  0
    1.7792   -2.1542    0.0000 N   0  0  3  0  0  0  0  0  0  0  0  0
    5.6917   -3.3625    0.0000 N   0  0  0  0  0  0  0  0  0  0  0  0
    2.1917   -0.7875    0.0000 O   0  0  0  0  0  0  0  0  0  0  0  0
    2.7917   -0.2167    0.0000 O   0  0  0  0  0  0  0  0  0  0  0  0
    0.9917   -1.9167    0.0000 C   0  0  0  0  0  0  0  0  0  0  0  0
    5.5125   -2.5625    0.0000 C   0  0  0  0  0  0  0  0  0  0  0  0
    4.7292   -2.3250    0.0000 C   0  0  0  0  0  0  0  0  0  0  0  0
    4.1792    0.1083    0.0000 O   0  0  0  0  0  0  0  0  0  0  0  0
   -0.5833   -1.4375    0.0000 C   0  0  0  0  0  0  0  0  0  0  0  0
   -1.3750   -1.1917    0.0000 Cl  0  0  0  0  0  0  0  0  0  0  0  0
    0.3917   -2.4917    0.0000 C   0  0  0  0  0  0  0  0  0  0  0  0
    0.8042   -1.1042    0.0000 C   0  0  0  0  0  0  0  0  0  0  0  0
   -0.3958   -2.2500    0.0000 C   0  0  0  0  0  0  0  0  0  0  0  0
    0.0167   -0.8625    0.0000 C   0  0  0  0  0  0  0  0  0  0  0  0
    6.4750   -3.6042    0.0000 C   0  0  0  0  0  0  0  0  0  0  0  0
    6.1042   -2.0042    0.0000 C   0  0  0  0  0  0  0  0  0  0  0  0
    7.0750   -3.0417    0.0000 C   0  0  0  0  0  0  0  0  0  0  0  0
    6.8917   -2.2417    0.0000 C   0  0  0  0  0  0  0  0  0  0  0  0
    4.9667   -0.1375    0.0000 H   0  0  0  0  0  0  0  0  0  0  0  0
    5.1417   -0.9417    0.0000 H   0  0  0  0  0  0  0  0  0  0  0  0
    1.9667   -2.9667    0.0000 H   0  0  0  0  0  0  0  0  0  0  0  0
  2  1  1  0  0  0  0
  3  4  1  0  0  0  0
  4  1  1  0  0  0  0
  5  4  1  0  0  0  0
  6  2  1  0  0  0  0
  7 11  2  0  0  0  0
  8  2  2  0  0  0  0
  9  3  2  0  0  0  0
 10  6  1  0  0  0  0
 11 12  1  0  0  0  0
 12  5  1  0  0  0  0
 13  3  1  0  0  0  0
 14 19  2  0  0  0  0
 15 14  1  0  0  0  0
 16 10  1  0  0  0  0
 17 10  2  0  0  0  0
 18 16  2  0  0  0  0
 19 17  1  0  0  0  0
 20  7  1  0  0  0  0
 21 11  1  0  0  0  0
 22 23  1  0  0  0  0
 23 21  2  0  0  0  0
 24 13  1  0  0  0  0
 25  5  1  0  0  0  0
 26  6  1  0  0  0  0
 14 18  1  0  0  0  0
 22 20  2  0  0  0  0
M  END
> <#>
1514

> <PLATE>
LAT019

> <ROW>
B

> <COL>
11

> <COORD>
B11

> <LATID>
LAT019B11

> <Supplier>
Chembridge

> <Suplier_CAT#>
7789929

> <Name>
Novel

> <Concentration_(mM)>
2.5

> <IC50_(µM)>
inactive

> <Yeast_Active?>
-

> <Pubchem_CID>
969938

$$$$
