
  -ISIS-  08130814242D

 18 19  0  0  0  0  0  0  0  0999 V2000
   -5.5412    1.0798    0.0000 C   0  0  0  0  0  0  0  0  0  0  0  0
   -4.7081    0.1480    0.0000 C   0  0  0  0  0  0  0  0  0  0  0  0
   -3.4645    0.2742    0.0000 C   0  0  0  0  0  0  0  0  0  0  0  0
   -2.9601   -0.8695    0.0000 O   0  0  0  0  0  0  0  0  0  0  0  0
   -3.8920   -1.7026    0.0000 N   0  0  0  0  0  0  0  0  0  0  0  0
   -4.9723   -1.0738    0.0000 C   0  0  0  0  0  0  0  0  0  0  0  0
   -6.1173   -1.5782    0.0000 C   0  0  0  0  0  0  0  0  0  0  0  0
   -2.8357    1.3546    0.0000 N   0  0  0  0  0  0  0  0  0  0  0  0
   -1.5857    1.3501    0.0000 S   0  0  3  0  0  0  0  0  0  0  0  0
   -1.5901    0.1002    0.0000 O   0  0  0  0  0  0  0  0  0  0  0  0
   -1.5813    2.6001    0.0000 O   0  0  0  0  0  0  0  0  0  0  0  0
   -0.3357    1.3457    0.0000 C   0  0  0  0  0  0  0  0  0  0  0  0
    0.2855    0.2610    0.0000 C   0  0  0  0  0  0  0  0  0  0  0  0
    1.5355    0.2566    0.0000 C   0  0  0  0  0  0  0  0  0  0  0  0
    2.1643    1.3369    0.0000 C   0  0  0  0  0  0  0  0  0  0  0  0
    1.5431    2.4216    0.0000 C   0  0  0  0  0  0  0  0  0  0  0  0
    0.2931    2.4261    0.0000 C   0  0  0  0  0  0  0  0  0  0  0  0
    3.4143    1.3325    0.0000 N   0  0  0  0  0  0  0  0  0  0  0  0
  1  2  1  0  0  0  0
  2  3  2  0  0  0  0
  3  4  1  0  0  0  0
  4  5  1  0  0  0  0
  5  6  2  0  0  0  0
  2  6  1  0  0  0  0
  6  7  1  0  0  0  0
  3  8  1  0  0  0  0
  8  9  1  0  0  0  0
  9 10  2  0  0  0  0
  9 11  2  0  0  0  0
  9 12  1  0  0  0  0
 12 13  2  0  0  0  0
 13 14  1  0  0  0  0
 14 15  2  0  0  0  0
 15 16  1  0  0  0  0
 16 17  2  0  0  0  0
 12 17  1  0  0  0  0
 15 18  1  0  0  0  0
M  END
> <#>
394

> <PLATE>
LAT005

> <ROW>
B

> <COL>
11

> <COORD>
B11

> <LATID>
LAT005B11

> <Supplier>
Sigma

> <Suplier_CAT#>
S6377

> <Name>
Sulfisoxazole

> <Concentration_(mM)>
2.5

> <IC50_(µM)>
2.9

> <Yeast_Active?>
-

> <Pubchem_CID>
5344

$$$$
