
  -ISIS-  08130814242D

 21 23  0  0  0  0  0  0  0  0999 V2000
    3.1667    2.5875    0.0000 C   0  0  3  0  0  0  0  0  0  0  0  0
    3.8917    2.2875    0.0000 C   0  0  3  0  0  0  0  0  0  0  0  0
    2.8667    1.8833    0.0000 O   0  0  0  0  0  0  0  0  0  0  0  0
    4.6042    2.5875    0.0000 C   0  0  3  0  0  0  0  0  0  0  0  0
    3.5875    1.5833    0.0000 C   0  0  0  0  0  0  0  0  0  0  0  0
    2.4417    2.8833    0.0000 C   0  0  0  0  0  0  0  0  0  0  0  0
    3.0667    3.3583    0.0000 C   0  0  0  0  0  0  0  0  0  0  0  0
    3.7792    3.0583    0.0000 C   0  0  0  0  0  0  0  0  0  0  0  0
    1.7417    2.4583    0.0000 N   0  0  0  0  0  0  0  0  0  0  0  0
    3.8917    0.8583    0.0000 O   0  0  0  0  0  0  0  0  0  0  0  0
    0.3250    1.6375    0.0000 N   0  0  0  0  0  0  0  0  0  0  0  0
    2.5250    3.7083    0.0000 O   0  0  0  0  0  0  0  0  0  0  0  0
    1.7542    1.6250    0.0000 C   0  0  0  0  0  0  0  0  0  0  0  0
    1.0417    1.2083    0.0000 C   0  0  0  0  0  0  0  0  0  0  0  0
    5.2250    2.1250    0.0000 C   0  0  0  0  0  0  0  0  0  0  0  0
    4.9125    3.3083    0.0000 C   0  0  0  0  0  0  0  0  0  0  0  0
    4.5042    1.8333    0.0000 C   0  0  0  0  0  0  0  0  0  0  0  0
   -0.3833    1.2083    0.0000 C   0  0  0  0  0  0  0  0  0  0  0  0
    1.0417    0.3958    0.0000 C   0  0  0  0  0  0  0  0  0  0  0  0
   -0.3833    0.3958    0.0000 C   0  0  0  0  0  0  0  0  0  0  0  0
    0.3250   -0.0500    0.0000 C   0  0  0  0  0  0  0  0  0  0  0  0
  2  4  1  0  0  0  0
  3  1  1  0  0  0  0
  4  1  1  0  0  0  0
  5  3  1  0  0  0  0
  6  1  1  0  0  0  0
  7  1  1  0  0  0  0
  8  7  1  0  0  0  0
  9  6  1  0  0  0  0
 10  5  2  0  0  0  0
 11 14  2  0  0  0  0
 12  6  2  0  0  0  0
 13  9  1  0  0  0  0
 14 13  1  0  0  0  0
 15  4  1  0  0  0  0
 16  4  1  0  0  0  0
 17  2  1  0  0  0  0
 18 11  1  0  0  0  0
 19 14  1  0  0  0  0
 20 21  1  0  0  0  0
 21 19  2  0  0  0  0
  2  8  1  0  0  0  0
  2  5  1  0  0  0  0
 20 18  2  0  0  0  0
M  END
> <#>
1585

> <PLATE>
LAT020

> <ROW>
A

> <COL>
10

> <COORD>
A10

> <LATID>
LAT020A10

> <Supplier>
Chembridge

> <Suplier_CAT#>
7976493

> <Name>
Novel

> <Concentration_(mM)>
2.5

> <IC50_(µM)>
inactive

> <Yeast_Active?>
-

> <Pubchem_CID>
2979757

$$$$
