
  -ISIS-  08130814242D

 25 27  0  0  0  0  0  0  0  0999 V2000
    2.4875   -1.5000    0.0000 C   0  0  0  0  0  0  0  0  0  0  0  0
   -1.3125   -3.1000    0.0000 C   0  0  0  0  0  0  0  0  0  0  0  0
   -1.7708   -2.2792    0.0000 N   0  0  0  0  0  0  0  0  0  0  0  0
    2.9667   -0.7000    0.0000 C   0  0  0  0  0  0  0  0  0  0  0  0
    1.5500   -1.4792    0.0000 N   0  0  0  0  0  0  0  0  0  0  0  0
   -2.7125   -2.2542    0.0000 C   0  0  0  0  0  0  0  0  0  0  0  0
   -3.1958   -1.4542    0.0000 C   0  0  0  0  0  0  0  0  0  0  0  0
    3.8875   -0.6500    0.0000 S   0  0  0  0  0  0  0  0  0  0  0  0
   -0.3500   -3.1000    0.0000 C   0  0  0  0  0  0  0  0  0  0  0  0
   -4.1333   -1.4542    0.0000 C   0  0  0  0  0  0  0  0  0  0  0  0
    1.0667   -2.3000    0.0000 C   0  0  0  0  0  0  0  0  0  0  0  0
    2.6000    0.1625    0.0000 C   0  0  0  0  0  0  0  0  0  0  0  0
    0.1042   -2.3000    0.0000 C   0  0  0  0  0  0  0  0  0  0  0  0
   -1.7708   -3.9000    0.0000 O   0  0  0  0  0  0  0  0  0  0  0  0
    2.9500   -2.3167    0.0000 O   0  0  0  0  0  0  0  0  0  0  0  0
    4.1375    0.2833    0.0000 C   0  0  0  0  0  0  0  0  0  0  0  0
    3.3375    0.7833    0.0000 C   0  0  0  0  0  0  0  0  0  0  0  0
   -3.1958   -3.0792    0.0000 C   0  0  0  0  0  0  0  0  0  0  0  0
   -4.6125   -2.2542    0.0000 C   0  0  0  0  0  0  0  0  0  0  0  0
   -2.7125   -0.6375    0.0000 Cl  0  0  0  0  0  0  0  0  0  0  0  0
   -4.1333   -3.1000    0.0000 C   0  0  0  0  0  0  0  0  0  0  0  0
   -5.5500   -2.2542    0.0000 Cl  0  0  0  0  0  0  0  0  0  0  0  0
    0.1292   -3.9375    0.0000 C   0  0  0  0  0  0  0  0  0  0  0  0
    1.0667   -3.9167    0.0000 C   0  0  0  0  0  0  0  0  0  0  0  0
    1.5292   -3.1000    0.0000 C   0  0  0  0  0  0  0  0  0  0  0  0
  2  9  1  0  0  0  0
  3  2  1  0  0  0  0
  4  1  1  0  0  0  0
  5  1  1  0  0  0  0
  6  3  1  0  0  0  0
  7  6  1  0  0  0  0
  8  4  1  0  0  0  0
  9 13  1  0  0  0  0
 10  7  2  0  0  0  0
 11  5  1  0  0  0  0
 12  4  2  0  0  0  0
 13 11  2  0  0  0  0
 14  2  2  0  0  0  0
 15  1  2  0  0  0  0
 16  8  1  0  0  0  0
 17 12  1  0  0  0  0
 18  6  2  0  0  0  0
 19 21  2  0  0  0  0
 20  7  1  0  0  0  0
 21 18  1  0  0  0  0
 22 19  1  0  0  0  0
 23 24  1  0  0  0  0
 24 25  2  0  0  0  0
 25 11  1  0  0  0  0
 17 16  2  0  0  0  0
  9 23  2  0  0  0  0
 10 19  1  0  0  0  0
M  END
> <#>
1971

> <PLATE>
LAT025

> <ROW>
C

> <COL>
8

> <COORD>
C08

> <LATID>
LAT025C08

> <Supplier>
Chembridge

> <Suplier_CAT#>
6304260

> <Concentration_(mM)>
2.5

> <IC50_(µM)>
inactive

> <Yeast_Active?>
+

> <Pubchem_CID>
1348456

$$$$
