
  -ISIS-  08130814242D

 25 27  0  0  0  0  0  0  0  0999 V2000
    1.0542   -2.7292    0.0000 S   0  0  3  0  0  0  0  0  0  0  0  0
    0.3417   -2.3167    0.0000 N   0  0  3  0  0  0  0  0  0  0  0  0
    4.6375   -1.5125    0.0000 C   0  0  0  0  0  0  0  0  0  0  0  0
    1.7750   -2.3292    0.0000 C   0  0  0  0  0  0  0  0  0  0  0  0
    3.9250   -1.1000    0.0000 N   0  0  0  0  0  0  0  0  0  0  0  0
    0.6417   -3.4417    0.0000 O   0  0  0  0  0  0  0  0  0  0  0  0
    1.4667   -3.4417    0.0000 O   0  0  0  0  0  0  0  0  0  0  0  0
    5.3542   -1.1042    0.0000 C   0  0  0  0  0  0  0  0  0  0  0  0
    4.6292   -2.3375    0.0000 O   0  0  0  0  0  0  0  0  0  0  0  0
    6.0625   -1.5250    0.0000 C   0  0  0  0  0  0  0  0  0  0  0  0
    2.4792   -2.7417    0.0000 C   0  0  0  0  0  0  0  0  0  0  0  0
    1.7750   -1.5000    0.0000 C   0  0  0  0  0  0  0  0  0  0  0  0
    3.2042   -1.5042    0.0000 C   0  0  0  0  0  0  0  0  0  0  0  0
    6.7792   -1.1167    0.0000 C   0  0  0  0  0  0  0  0  0  0  0  0
    3.2042   -2.3292    0.0000 C   0  0  0  0  0  0  0  0  0  0  0  0
    2.4917   -1.0875    0.0000 C   0  0  0  0  0  0  0  0  0  0  0  0
    7.4917   -1.5375    0.0000 Cl  0  0  0  0  0  0  0  0  0  0  0  0
    0.3500   -1.4917    0.0000 C   0  0  0  0  0  0  0  0  0  0  0  0
   -0.3625   -2.7292    0.0000 C   0  0  0  0  0  0  0  0  0  0  0  0
    5.3542   -0.2792    0.0000 C   0  0  0  0  0  0  0  0  0  0  0  0
    6.0750    0.1250    0.0000 C   0  0  0  0  0  0  0  0  0  0  0  0
    6.7875   -0.2917    0.0000 C   0  0  0  0  0  0  0  0  0  0  0  0
   -0.3625   -1.0792    0.0000 C   0  0  0  0  0  0  0  0  0  0  0  0
   -1.0708   -2.3167    0.0000 C   0  0  0  0  0  0  0  0  0  0  0  0
   -1.0708   -1.4917    0.0000 C   0  0  0  0  0  0  0  0  0  0  0  0
  2  1  1  0  0  0  0
  3  5  1  0  0  0  0
  4  1  1  0  0  0  0
  5 13  1  0  0  0  0
  6  1  2  0  0  0  0
  7  1  2  0  0  0  0
  8  3  1  0  0  0  0
  9  3  2  0  0  0  0
 10  8  2  0  0  0  0
 11  4  1  0  0  0  0
 12  4  2  0  0  0  0
 13 16  2  0  0  0  0
 14 10  1  0  0  0  0
 15 11  2  0  0  0  0
 16 12  1  0  0  0  0
 17 14  1  0  0  0  0
 18  2  1  0  0  0  0
 19  2  1  0  0  0  0
 20  8  1  0  0  0  0
 21 20  2  0  0  0  0
 22 21  1  0  0  0  0
 23 18  1  0  0  0  0
 24 19  1  0  0  0  0
 25 24  1  0  0  0  0
 13 15  1  0  0  0  0
 25 23  1  0  0  0  0
 22 14  2  0  0  0  0
M  END
> <#>
2031

> <PLATE>
LAT026

> <ROW>
G

> <COL>
5

> <COORD>
G05

> <LATID>
LAT026G05

> <Supplier>
Chembridge

> <Suplier_CAT#>
5731476

> <Sec_Name>
232_C09

> <Concentration_(mM)>
2.5

> <IC50_(µM)>
25

> <Yeast_Active?>
-

> <Pubchem_CID>
1118215

$$$$
