
  -ISIS-  08130814242D

 21 22  0  0  0  0  0  0  0  0999 V2000
    4.4167   -1.6542    0.0000 C   0  0  0  0  0  0  0  0  0  0  0  0
    5.1292   -1.2375    0.0000 C   0  0  0  0  0  0  0  0  0  0  0  0
    5.8500   -1.6417    0.0000 C   0  0  0  0  0  0  0  0  0  0  0  0
    4.4167   -2.4792    0.0000 C   0  0  0  0  0  0  0  0  0  0  0  0
    7.2792   -1.6417    0.0000 C   0  0  0  0  0  0  0  0  0  0  0  0
    7.9917   -1.2250    0.0000 C   0  0  0  0  0  0  0  0  0  0  0  0
    3.7042   -1.2417    0.0000 C   0  0  0  0  0  0  0  0  0  0  0  0
    6.5625   -1.2292    0.0000 C   0  0  0  0  0  0  0  0  0  0  0  0
    5.1292   -0.4125    0.0000 O   0  0  0  0  0  0  0  0  0  0  0  0
    6.5542   -0.4042    0.0000 O   0  0  0  0  0  0  0  0  0  0  0  0
    3.7167   -2.8917    0.0000 C   0  0  0  0  0  0  0  0  0  0  0  0
    2.9917   -1.6542    0.0000 C   0  0  0  0  0  0  0  0  0  0  0  0
    8.7042   -1.6375    0.0000 C   0  0  0  0  0  0  0  0  0  0  0  0
    2.9917   -2.4792    0.0000 C   0  0  0  0  0  0  0  0  0  0  0  0
    5.1375   -2.8917    0.0000 O   0  0  0  0  0  0  0  0  0  0  0  0
    2.2792   -1.2417    0.0000 Cl  0  0  0  0  0  0  0  0  0  0  0  0
    9.4125   -1.2167    0.0000 C   0  0  0  0  0  0  0  0  0  0  0  0
    8.7042   -2.4625    0.0000 C   0  0  0  0  0  0  0  0  0  0  0  0
    9.4167   -2.8667    0.0000 C   0  0  0  0  0  0  0  0  0  0  0  0
   10.1292   -1.6250    0.0000 C   0  0  0  0  0  0  0  0  0  0  0  0
   10.1375   -2.4542    0.0000 C   0  0  0  0  0  0  0  0  0  0  0  0
  2  1  1  0  0  0  0
  3  2  1  0  0  0  0
  4  1  1  0  0  0  0
  5  8  1  0  0  0  0
  6  5  2  0  0  0  0
  7  1  2  0  0  0  0
  8  3  1  0  0  0  0
  9  2  2  0  0  0  0
 10  8  2  0  0  0  0
 11  4  2  0  0  0  0
 12  7  1  0  0  0  0
 13  6  1  0  0  0  0
 14 12  2  0  0  0  0
 15  4  1  0  0  0  0
 16 12  1  0  0  0  0
 17 13  1  0  0  0  0
 18 13  2  0  0  0  0
 19 18  1  0  0  0  0
 20 17  2  0  0  0  0
 21 19  2  0  0  0  0
 14 11  1  0  0  0  0
 21 20  1  0  0  0  0
M  END
> <#>
1343

> <PLATE>
LAT017

> <ROW>
G

> <COL>
9

> <COORD>
G09

> <LATID>
LAT017G09

> <Supplier>
Chembridge

> <Suplier_CAT#>
7387895

> <Name>
Novel

> <Concentration_(mM)>
2.5

> <IC50_(µM)>
>100

> <Yeast_Active?>
-

> <Pubchem_CID>
889516

$$$$
