
  -ISIS-  08130814242D

 26 29  0  0  0  0  0  0  0  0999 V2000
   -0.5750   -4.3042    0.0000 N   0  0  3  0  0  0  0  0  0  0  0  0
   -0.5708   -3.4750    0.0000 C   0  0  0  0  0  0  0  0  0  0  0  0
    0.1667   -3.0792    0.0000 C   0  0  1  0  0  0  0  0  0  0  0  0
    1.5292   -3.1125    0.0000 N   0  0  3  0  0  0  0  0  0  0  0  0
   -1.2875   -4.7167    0.0000 C   0  0  0  0  0  0  0  0  0  0  0  0
    0.8500   -4.3042    0.0000 C   0  0  1  0  0  0  0  0  0  0  0  0
    0.1375   -4.7125    0.0000 C   0  0  0  0  0  0  0  0  0  0  0  0
    0.8500   -2.7167    0.0000 C   0  0  0  0  0  0  0  0  0  0  0  0
    0.1667   -3.9042    0.0000 C   0  0  0  0  0  0  0  0  0  0  0  0
   -1.2875   -3.0625    0.0000 C   0  0  0  0  0  0  0  0  0  0  0  0
   -2.0083   -3.4667    0.0000 C   0  0  0  0  0  0  0  0  0  0  0  0
    1.5292   -3.9042    0.0000 C   0  0  0  0  0  0  0  0  0  0  0  0
   -2.0083   -4.3000    0.0000 C   0  0  0  0  0  0  0  0  0  0  0  0
    4.3167   -3.9042    0.0000 C   0  0  0  0  0  0  0  0  0  0  0  0
   -1.2875   -5.5417    0.0000 O   0  0  0  0  0  0  0  0  0  0  0  0
    5.0000   -4.3042    0.0000 N   0  0  3  0  0  0  0  0  0  0  0  0
    2.2417   -2.7000    0.0000 C   0  0  0  0  0  0  0  0  0  0  0  0
    4.3167   -3.1125    0.0000 C   0  0  0  0  0  0  0  0  0  0  0  0
    3.6417   -4.2917    0.0000 C   0  0  0  0  0  0  0  0  0  0  0  0
    2.9625   -3.1125    0.0000 C   0  0  0  0  0  0  0  0  0  0  0  0
    2.9625   -3.8917    0.0000 C   0  0  0  0  0  0  0  0  0  0  0  0
    3.6417   -2.7125    0.0000 C   0  0  0  0  0  0  0  0  0  0  0  0
    5.0000   -5.0917    0.0000 C   0  0  0  0  0  0  0  0  0  0  0  0
    5.6792   -3.9125    0.0000 C   0  0  0  0  0  0  0  0  0  0  0  0
    6.3667   -4.3042    0.0000 C   0  0  0  0  0  0  0  0  0  0  0  0
    5.6667   -5.4917    0.0000 C   0  0  0  0  0  0  0  0  0  0  0  0
  2  1  1  0  0  0  0
  3  2  1  0  0  0  0
  4 12  1  0  0  0  0
  5  1  1  0  0  0  0
  6  7  1  0  0  0  0
  7  1  1  0  0  0  0
  8  3  1  0  0  0  0
  6  9  1  6  0  0  0
 10  2  2  0  0  0  0
 11 13  2  0  0  0  0
 12  6  1  0  0  0  0
 13  5  1  0  0  0  0
 14 18  1  0  0  0  0
 15  5  2  0  0  0  0
 16 14  1  0  0  0  0
 17  4  1  0  0  0  0
 18 22  2  0  0  0  0
 19 21  1  0  0  0  0
 20 17  1  0  0  0  0
 21 20  2  0  0  0  0
 22 20  1  0  0  0  0
 23 16  1  0  0  0  0
 24 16  1  0  0  0  0
 25 24  1  0  0  0  0
 26 23  1  0  0  0  0
  3  9  1  6  0  0  0
 10 11  1  0  0  0  0
  8  4  1  0  0  0  0
 19 14  2  0  0  0  0
M  END
> <#>
2009

> <PLATE>
LAT026

> <ROW>
A

> <COL>
3

> <COORD>
A03

> <LATID>
LAT026A03

> <Supplier>
Chembridge

> <Suplier_CAT#>
5640132

> <Sec_Name>
195_C07

> <Concentration_(mM)>
2.5

> <IC50_(µM)>
inactive

> <Yeast_Active?>
-

> <Pubchem_CID>
2857318

$$$$
