
  -ISIS-  08130814242D

 15 17  0  0  0  0  0  0  0  0999 V2000
   -1.2833   -2.1292    0.0000 C   0  0  0  0  0  0  0  0  0  0  0  0
   -1.9708   -1.2875    0.0000 C   0  0  0  0  0  0  0  0  0  0  0  0
   -0.2000   -1.9667    0.0000 N   0  0  0  0  0  0  0  0  0  0  0  0
   -0.4833   -0.1042    0.0000 N   0  0  0  0  0  0  0  0  0  0  0  0
   -1.5625   -0.2875    0.0000 C   0  0  0  0  0  0  0  0  0  0  0  0
   -1.8625   -3.0292    0.0000 S   0  0  0  0  0  0  0  0  0  0  0  0
   -2.9625   -1.6667    0.0000 C   0  0  0  0  0  0  0  0  0  0  0  0
    0.2000   -0.9667    0.0000 C   0  0  0  0  0  0  0  0  0  0  0  0
   -2.9208   -2.7500    0.0000 C   0  0  0  0  0  0  0  0  0  0  0  0
   -2.2625    0.5958    0.0000 N   0  0  0  0  0  0  0  0  0  0  0  0
    1.3000   -0.8292    0.0000 S   0  0  0  0  0  0  0  0  0  0  0  0
   -4.0000   -1.3667    0.0000 C   0  0  0  0  0  0  0  0  0  0  0  0
   -3.9458   -3.1042    0.0000 C   0  0  0  0  0  0  0  0  0  0  0  0
   -4.6000   -2.2875    0.0000 C   0  0  0  0  0  0  0  0  0  0  0  0
    1.7167    0.1958    0.0000 C   0  0  0  0  0  0  0  0  0  0  0  0
  2  1  2  0  0  0  0
  3  1  1  0  0  0  0
  4  8  1  0  0  0  0
  5  2  1  0  0  0  0
  6  1  1  0  0  0  0
  7  2  1  0  0  0  0
  8  3  2  0  0  0  0
  9  6  1  0  0  0  0
 10  5  1  0  0  0  0
 11  8  1  0  0  0  0
 12  7  1  0  0  0  0
 13  9  1  0  0  0  0
 14 13  1  0  0  0  0
 15 11  1  0  0  0  0
  9  7  2  0  0  0  0
  4  5  2  0  0  0  0
 14 12  1  0  0  0  0
M  END
> <#>
2028

> <PLATE>
LAT026

> <ROW>
D

> <COL>
5

> <COORD>
D05

> <LATID>
LAT026D05

> <Supplier>
Chembridge

> <Suplier_CAT#>
5705272

> <Sec_Name>
222_E11

> <Concentration_(mM)>
2.5

> <IC50_(µM)>
inactive

> <Yeast_Active?>
-

> <Pubchem_CID>
NULL

$$$$
