
  -ISIS-  08130814242D

 18 19  0  0  0  0  0  0  0  0999 V2000
    1.8292   -1.0875    0.0000 C   0  0  0  0  0  0  0  0  0  0  0  0
    1.8292    0.0125    0.0000 C   0  0  0  0  0  0  0  0  0  0  0  0
    0.8667    0.5708    0.0000 C   0  0  0  0  0  0  0  0  0  0  0  0
   -0.0958   -1.0875    0.0000 C   0  0  0  0  0  0  0  0  0  0  0  0
    0.8667   -1.6500    0.0000 O   0  0  0  0  0  0  0  0  0  0  0  0
   -0.0958    0.0333    0.0000 C   0  0  0  0  0  0  0  0  0  0  0  0
   -1.0500   -1.6500    0.0000 C   0  0  0  0  0  0  0  0  0  0  0  0
   -2.0125   -1.0875    0.0000 C   0  0  0  0  0  0  0  0  0  0  0  0
   -1.0500    0.5708    0.0000 C   0  0  0  0  0  0  0  0  0  0  0  0
    2.8042   -1.6292    0.0000 O   0  0  0  0  0  0  0  0  0  0  0  0
   -2.9958   -1.6292    0.0000 N   0  0  3  0  0  0  0  0  0  0  0  0
   -2.0125    0.0125    0.0000 C   0  0  0  0  0  0  0  0  0  0  0  0
    2.7875    0.5500    0.0000 Cl  0  0  0  0  0  0  0  0  0  0  0  0
    0.8667    1.6708    0.0000 C   0  0  0  0  0  0  0  0  0  0  0  0
   -3.0125   -2.7500    0.0000 C   0  0  0  0  0  0  0  0  0  0  0  0
   -3.9583   -1.0667    0.0000 C   0  0  0  0  0  0  0  0  0  0  0  0
   -3.9333    0.0500    0.0000 C   0  0  0  0  0  0  0  0  0  0  0  0
   -3.9958   -3.2875    0.0000 C   0  0  0  0  0  0  0  0  0  0  0  0
  2  1  1  0  0  0  0
  3  2  2  0  0  0  0
  4  5  1  0  0  0  0
  5  1  1  0  0  0  0
  6  4  2  0  0  0  0
  7  4  1  0  0  0  0
  8  7  2  0  0  0  0
  9  6  1  0  0  0  0
 10  1  2  0  0  0  0
 11  8  1  0  0  0  0
 12  8  1  0  0  0  0
 13  2  1  0  0  0  0
 14  3  1  0  0  0  0
 15 11  1  0  0  0  0
 16 11  1  0  0  0  0
 17 16  1  0  0  0  0
 18 15  1  0  0  0  0
  6  3  1  0  0  0  0
  9 12  2  0  0  0  0
M  END
> <#>
1820

> <PLATE>
LAT023

> <ROW>
D

> <COL>
9

> <COORD>
D09

> <LATID>
LAT023D09

> <Supplier>
Chembridge

> <Suplier_CAT#>
5647841

> <Name>
Novel

> <Sec_Name>
197_F06

> <Concentration_(mM)>
2.5

> <IC50_(µM)>
5

> <Yeast_Active?>
-

> <Pubchem_CID>
836132

$$$$
