
  -ISIS-  08130814242D

 19 20  0  0  0  0  0  0  0  0999 V2000
    6.3542    1.1083    0.0000 C   0  0  0  0  0  0  0  0  0  0  0  0
    7.6542    1.1083    0.0000 C   0  0  0  0  0  0  0  0  0  0  0  0
    7.0042    1.4833    0.0000 C   0  0  0  0  0  0  0  0  0  0  0  0
    5.7042    1.4833    0.0000 C   0  0  0  0  0  0  0  0  0  0  0  0
    6.3542    0.3583    0.0000 C   0  0  0  0  0  0  0  0  0  0  0  0
    8.3042    1.4833    0.0000 N   0  0  0  0  0  0  0  0  0  0  0  0
   10.2542    1.1083    0.0000 N   0  0  0  0  0  0  0  0  0  0  0  0
    7.6542    0.3583    0.0000 O   0  0  0  0  0  0  0  0  0  0  0  0
    9.6042    1.4833    0.0000 C   0  0  0  0  0  0  0  0  0  0  0  0
    8.9542    1.1083    0.0000 C   0  0  0  0  0  0  0  0  0  0  0  0
    5.7042    2.2333    0.0000 F   0  0  0  0  0  0  0  0  0  0  0  0
    7.0042   -0.0167    0.0000 Cl  0  0  0  0  0  0  0  0  0  0  0  0
    5.0625    0.3583    0.0000 C   0  0  0  0  0  0  0  0  0  0  0  0
    5.0625    1.1083    0.0000 C   0  0  0  0  0  0  0  0  0  0  0  0
    5.7042   -0.0167    0.0000 C   0  0  0  0  0  0  0  0  0  0  0  0
   10.9042    1.4833    0.0000 C   0  0  0  0  0  0  0  0  0  0  0  0
    9.6042    2.2333    0.0000 C   0  0  0  0  0  0  0  0  0  0  0  0
   10.9042    2.2333    0.0000 C   0  0  0  0  0  0  0  0  0  0  0  0
   10.2542    2.6083    0.0000 C   0  0  0  0  0  0  0  0  0  0  0  0
  2  3  1  0  0  0  0
  3  1  1  0  0  0  0
  4  1  2  0  0  0  0
  5  1  1  0  0  0  0
  6  2  1  0  0  0  0
  7  9  1  0  0  0  0
  8  2  2  0  0  0  0
  9 10  1  0  0  0  0
 10  6  1  0  0  0  0
 11  4  1  0  0  0  0
 12  5  1  0  0  0  0
 13 15  1  0  0  0  0
 14  4  1  0  0  0  0
 15  5  2  0  0  0  0
 16  7  2  0  0  0  0
 17  9  2  0  0  0  0
 18 19  2  0  0  0  0
 19 17  1  0  0  0  0
 13 14  2  0  0  0  0
 16 18  1  0  0  0  0
M  END
> <#>
1541

> <PLATE>
LAT020

> <ROW>
E

> <COL>
4

> <COORD>
E04

> <LATID>
LAT020E04

> <Supplier>
Chembridge

> <Suplier_CAT#>
7908226

> <Name>
Novel

> <Concentration_(mM)>
2.5

> <IC50_(µM)>
inactive

> <Yeast_Active?>
-

> <Pubchem_CID>
839124

$$$$
