
  -ISIS-  08130814242D

 23 25  0  0  0  0  0  0  0  0999 V2000
    1.6542   -0.5292    0.0000 N   0  0  3  0  0  0  0  0  0  0  0  0
    1.9542   -0.1042    0.0000 C   0  0  0  0  0  0  0  0  0  0  0  0
    1.9542   -0.9500    0.0000 C   0  0  0  0  0  0  0  0  0  0  0  0
    2.4542   -0.2667    0.0000 C   0  0  0  0  0  0  0  0  0  0  0  0
    2.4542   -0.7875    0.0000 C   0  0  0  0  0  0  0  0  0  0  0  0
    1.1167   -0.5500    0.0000 O   0  0  0  0  0  0  0  0  0  0  0  0
    0.0792    0.3708    0.0000 C   0  0  0  0  0  0  0  0  0  0  0  0
    0.3375    0.8333    0.0000 C   0  0  0  0  0  0  0  0  0  0  0  0
    0.3375   -0.0875    0.0000 C   0  0  0  0  0  0  0  0  0  0  0  0
    0.8542   -0.0875    0.0000 C   0  0  0  0  0  0  0  0  0  0  0  0
    0.0792    1.2958    0.0000 C   0  0  0  0  0  0  0  0  0  0  0  0
   -0.4458    0.3708    0.0000 C   0  0  0  0  0  0  0  0  0  0  0  0
    1.7792    0.4125    0.0000 O   0  0  0  0  0  0  0  0  0  0  0  0
    1.7792   -1.4667    0.0000 O   0  0  0  0  0  0  0  0  0  0  0  0
    0.0792   -0.5500    0.0000 O   0  0  0  0  0  0  0  0  0  0  0  0
   -0.4458    1.2958    0.0000 C   0  0  0  0  0  0  0  0  0  0  0  0
    0.8792    0.8333    0.0000 O   0  0  0  0  0  0  0  0  0  0  0  0
   -0.7000    0.8333    0.0000 C   0  0  0  0  0  0  0  0  0  0  0  0
    2.9000   -1.0500    0.0000 C   0  0  0  0  0  0  0  0  0  0  0  0
    2.9000   -0.0042    0.0000 C   0  0  0  0  0  0  0  0  0  0  0  0
   -0.7000    1.7708    0.0000 O   0  0  0  0  0  0  0  0  0  0  0  0
    3.3542   -0.2667    0.0000 C   0  0  0  0  0  0  0  0  0  0  0  0
    3.3542   -0.7875    0.0000 C   0  0  0  0  0  0  0  0  0  0  0  0
  2  1  1  0  0  0  0
  3  1  1  0  0  0  0
  4  2  1  0  0  0  0
  5  3  1  0  0  0  0
  6  1  1  0  0  0  0
  7  9  1  0  0  0  0
  8  7  2  0  0  0  0
  9 10  1  0  0  0  0
 10  6  1  0  0  0  0
 11  8  1  0  0  0  0
 12  7  1  0  0  0  0
 13  2  2  0  0  0  0
 14  3  2  0  0  0  0
 15  9  2  0  0  0  0
 16 18  1  0  0  0  0
 17  8  1  0  0  0  0
 18 12  2  0  0  0  0
 19  5  2  0  0  0  0
 20  4  2  0  0  0  0
 21 16  1  0  0  0  0
 22 20  1  0  0  0  0
 23 19  1  0  0  0  0
  5  4  1  0  0  0  0
 23 22  2  0  0  0  0
 11 16  2  0  0  0  0
M  END
> <#>
1297

> <PLATE>
LAT017

> <ROW>
A

> <COL>
4

> <COORD>
A04

> <LATID>
LAT017A04

> <Supplier>
Chembridge

> <Suplier_CAT#>
6944268

> <Name>
Novel

> <Concentration_(mM)>
2.5

> <IC50_(µM)>
>100

> <Yeast_Active?>
-

> <Pubchem_CID>
NULL

$$$$
