
  -ISIS-  08130814242D

 19 21  0  0  0  0  0  0  0  0999 V2000
   -2.0208   -0.0917    0.0000 C   0  0  3  0  0  0  0  0  0  0  0  0
   -2.0208    2.2083    0.0000 C   0  0  3  0  0  0  0  0  0  0  0  0
   -1.0208    0.4833    0.0000 C   0  0  2  0  0  0  0  0  0  0  0  0
   -1.0208    1.6458    0.0000 C   0  0  1  0  0  0  0  0  0  0  0  0
   -0.0208   -0.0917    0.0000 C   0  0  0  0  0  0  0  0  0  0  0  0
   -3.0000    1.6458    0.0000 C   0  0  0  0  0  0  0  0  0  0  0  0
   -3.0000    0.4833    0.0000 C   0  0  0  0  0  0  0  0  0  0  0  0
   -0.0208    2.2458    0.0000 C   0  0  0  0  0  0  0  0  0  0  0  0
   -2.6500    1.0958    0.0000 C   0  0  0  0  0  0  0  0  0  0  0  0
   -0.0208   -1.2542    0.0000 N   0  0  0  0  0  0  0  0  0  0  0  0
    0.0500   -3.7167    0.0000 S   0  0  0  0  0  0  0  0  0  0  0  0
    0.9792   -3.0000    0.0000 C   0  0  0  0  0  0  0  0  0  0  0  0
    0.4500   -4.8167    0.0000 C   0  0  0  0  0  0  0  0  0  0  0  0
    1.0000    0.4833    0.0000 O   0  0  0  0  0  0  0  0  0  0  0  0
   -0.0208    3.4000    0.0000 O   0  0  0  0  0  0  0  0  0  0  0  0
    1.9042   -3.6167    0.0000 C   0  0  0  0  0  0  0  0  0  0  0  0
    1.6167   -4.7792    0.0000 C   0  0  0  0  0  0  0  0  0  0  0  0
    0.9792   -1.8375    0.0000 C   0  0  0  0  0  0  0  0  0  0  0  0
    0.9792    1.6833    0.0000 O   0  0  0  0  0  0  0  0  0  0  0  0
  2  9  1  0  0  0  0
  3  1  1  0  0  0  0
  4  3  1  0  0  0  0
  3  5  1  6  0  0  0
  6  7  2  0  0  0  0
  7  1  1  0  0  0  0
  4  8  1  6  0  0  0
  9  1  1  0  0  0  0
 10  5  1  0  0  0  0
 11 12  1  0  0  0  0
 12 18  1  0  0  0  0
 13 11  1  0  0  0  0
 14  5  2  0  0  0  0
 15  8  2  0  0  0  0
 16 12  2  0  0  0  0
 17 16  1  0  0  0  0
 18 10  1  0  0  0  0
 19  8  1  0  0  0  0
  2  6  1  0  0  0  0
  4  2  1  0  0  0  0
 13 17  2  0  0  0  0
M  END
> <#>
2053

> <PLATE>
LAT026

> <ROW>
E

> <COL>
8

> <COORD>
E08

> <LATID>
LAT026E08

> <Supplier>
Chembridge

> <Suplier_CAT#>
5584601

> <Sec_Name>
181_A03

> <Concentration_(mM)>
2.5

> <IC50_(µM)>
>100

> <Yeast_Active?>
-

> <Pubchem_CID>
3111390

$$$$
