
  -ISIS-  08130814242D

 18 19  0  0  0  0  0  0  0  0999 V2000
    3.7417   -1.5667    0.0000 S   0  0  3  0  0  0  0  0  0  0  0  0
    4.9042   -1.5667    0.0000 N   0  0  0  0  0  0  0  0  0  0  0  0
    5.2792   -2.2167    0.0000 C   0  0  0  0  0  0  0  0  0  0  0  0
    4.9042   -2.8667    0.0000 N   0  0  0  0  0  0  0  0  0  0  0  0
    2.9917   -1.5750    0.0000 C   0  0  0  0  0  0  0  0  0  0  0  0
    4.1167   -0.9167    0.0000 O   0  0  0  0  0  0  0  0  0  0  0  0
    4.1250   -2.2167    0.0000 O   0  0  0  0  0  0  0  0  0  0  0  0
    6.0292   -2.2167    0.0000 N   0  0  0  0  0  0  0  0  0  0  0  0
    2.6167   -0.9167    0.0000 C   0  0  0  0  0  0  0  0  0  0  0  0
    2.6250   -2.2292    0.0000 C   0  0  0  0  0  0  0  0  0  0  0  0
    5.2792   -3.5167    0.0000 C   0  0  0  0  0  0  0  0  0  0  0  0
    6.4042   -2.8625    0.0000 C   0  0  0  0  0  0  0  0  0  0  0  0
    1.4917   -1.5792    0.0000 C   0  0  0  0  0  0  0  0  0  0  0  0
    0.7417   -1.5875    0.0000 N   0  0  0  0  0  0  0  0  0  0  0  0
    6.0292   -3.5125    0.0000 C   0  0  0  0  0  0  0  0  0  0  0  0
    1.8667   -0.9292    0.0000 C   0  0  0  0  0  0  0  0  0  0  0  0
    1.8667   -2.2292    0.0000 C   0  0  0  0  0  0  0  0  0  0  0  0
    4.9042   -4.1667    0.0000 C   0  0  0  0  0  0  0  0  0  0  0  0
  2  1  1  0  0  0  0
  3  2  1  0  0  0  0
  4  3  1  0  0  0  0
  5  1  1  0  0  0  0
  6  1  2  0  0  0  0
  7  1  2  0  0  0  0
  8  3  2  0  0  0  0
  9  5  1  0  0  0  0
 10  5  2  0  0  0  0
 11  4  2  0  0  0  0
 12  8  1  0  0  0  0
 13 17  2  0  0  0  0
 14 13  1  0  0  0  0
 15 12  2  0  0  0  0
 16  9  2  0  0  0  0
 17 10  1  0  0  0  0
 18 11  1  0  0  0  0
 16 13  1  0  0  0  0
 11 15  1  0  0  0  0
M  END
> <#>
116

> <PLATE>
LAT002

> <ROW>
D

> <COL>
6

> <COORD>
D06

> <LATID>
LAT002D06

> <Supplier>
Microsource

> <Suplier_CAT#>
01500547

> <Name>
Sulfamerazine

> <Concentration_(mM)>
2.5

> <IC50_(µM)>
3.4

> <Yeast_Active?>
-

> <Pubchem_CID>
5325

> <Description>
Antibacterial

$$$$
