
  -ISIS-  08130814242D

 21 23  0  0  0  0  0  0  0  0999 V2000
    0.3500    2.9208    0.0000 C   0  0  0  0  0  0  0  0  0  0  0  0
    1.0042    3.3125    0.0000 C   0  0  0  0  0  0  0  0  0  0  0  0
   -1.2708    1.8125    0.0000 N   0  0  0  0  0  0  0  0  0  0  0  0
    0.3500    2.1458    0.0000 C   0  0  0  0  0  0  0  0  0  0  0  0
    1.6792    2.9208    0.0000 C   0  0  0  0  0  0  0  0  0  0  0  0
   -0.3000    1.7458    0.0000 C   0  0  0  0  0  0  0  0  0  0  0  0
   -1.9500    2.2083    0.0000 C   0  0  3  0  0  0  0  0  0  0  0  0
    1.0042    1.7833    0.0000 C   0  0  0  0  0  0  0  0  0  0  0  0
    1.6792    2.1458    0.0000 C   0  0  0  0  0  0  0  0  0  0  0  0
   -2.6333    1.8000    0.0000 C   0  0  3  0  0  0  0  0  0  0  0  0
    2.3500    3.3125    0.0000 O   0  0  0  0  0  0  0  0  0  0  0  0
    1.0042    4.0792    0.0000 C   0  0  0  0  0  0  0  0  0  0  0  0
   -0.3333    3.3125    0.0000 C   0  0  0  0  0  0  0  0  0  0  0  0
   -1.9500    2.9833    0.0000 C   0  0  0  0  0  0  0  0  0  0  0  0
   -2.6333    1.0208    0.0000 C   0  0  0  0  0  0  0  0  0  0  0  0
   -3.3125    2.1958    0.0000 C   0  0  0  0  0  0  0  0  0  0  0  0
    3.0042    2.9458    0.0000 C   0  0  0  0  0  0  0  0  0  0  0  0
   -0.3333    4.0667    0.0000 C   0  0  0  0  0  0  0  0  0  0  0  0
    0.3500    4.4542    0.0000 C   0  0  0  0  0  0  0  0  0  0  0  0
   -3.3125    2.9833    0.0000 C   0  0  0  0  0  0  0  0  0  0  0  0
   -2.6333    3.3833    0.0000 C   0  0  0  0  0  0  0  0  0  0  0  0
  2  1  1  0  0  0  0
  3  6  1  0  0  0  0
  4  1  2  0  0  0  0
  5  2  2  0  0  0  0
  6  4  1  0  0  0  0
  7  3  1  0  0  0  0
  8  4  1  0  0  0  0
  9  8  2  0  0  0  0
 10  7  1  0  0  0  0
 11  5  1  0  0  0  0
 12  2  1  0  0  0  0
 13  1  1  0  0  0  0
 14  7  1  0  0  0  0
 15 10  1  0  0  0  0
 16 10  1  0  0  0  0
 17 11  1  0  0  0  0
 18 13  2  0  0  0  0
 19 18  1  0  0  0  0
 20 21  1  0  0  0  0
 21 14  1  0  0  0  0
 12 19  2  0  0  0  0
  9  5  1  0  0  0  0
 20 16  1  0  0  0  0
M  END
> <#>
2051

> <PLATE>
LAT026

> <ROW>
C

> <COL>
8

> <COORD>
C08

> <LATID>
LAT026C08

> <Supplier>
Chembridge

> <Suplier_CAT#>
5560521

> <Sec_Name>
172_A05

> <Concentration_(mM)>
2.5

> <IC50_(µM)>
inactive

> <Yeast_Active?>
-

> <Pubchem_CID>
791896

$$$$
