
  -ISIS-  08130814242D

 21 22  0  0  0  0  0  0  0  0999 V2000
    1.7292    0.0625    0.0000 C   0  0  0  0  0  0  0  0  0  0  0  0
    0.9500   -0.3875    0.0000 N   0  3  0  0  0  0  0  0  0  0  0  0
    4.1167   -0.3875    0.0000 N   0  3  0  0  0  0  0  0  0  0  0  0
    2.5375   -0.4042    0.0000 C   0  0  0  0  0  0  0  0  0  0  0  0
    3.3375    0.0625    0.0000 C   0  0  0  0  0  0  0  0  0  0  0  0
    1.7292    1.0000    0.0000 C   0  0  0  0  0  0  0  0  0  0  0  0
    0.1167   -0.0042    0.0000 O   0  5  0  0  0  0  0  0  0  0  0  0
    0.2542    0.9208    0.0000 N   0  0  0  0  0  0  0  0  0  0  0  0
    4.1875   -1.3042    0.0000 O   0  5  0  0  0  0  0  0  0  0  0  0
    0.8875   -1.3000    0.0000 O   0  0  0  0  0  0  0  0  0  0  0  0
    4.9375    0.0000    0.0000 O   0  0  0  0  0  0  0  0  0  0  0  0
    1.1292    1.3958    0.0000 N   0  0  0  0  0  0  0  0  0  0  0  0
    3.3375    1.0000    0.0000 C   0  0  0  0  0  0  0  0  0  0  0  0
    2.5375    1.4833    0.0000 C   0  0  0  0  0  0  0  0  0  0  0  0
   -1.8208   -0.7542    0.0000 N   0  0  0  0  0  0  0  0  0  0  0  0
   -0.3708    1.1958    0.0000 C   0  0  0  0  0  0  0  0  0  0  0  0
   -1.0208    0.6625    0.0000 C   0  0  0  0  0  0  0  0  0  0  0  0
   -1.0208   -0.2875    0.0000 C   0  0  0  0  0  0  0  0  0  0  0  0
   -2.6333   -0.2875    0.0000 C   0  0  0  0  0  0  0  0  0  0  0  0
   -1.8208    1.1333    0.0000 C   0  0  0  0  0  0  0  0  0  0  0  0
   -2.6333    0.6625    0.0000 C   0  0  0  0  0  0  0  0  0  0  0  0
  2  1  1  0  0  0  0
  3  5  1  0  0  0  0
  4  1  2  0  0  0  0
  5  4  1  0  0  0  0
  6  1  1  0  0  0  0
  7  2  1  0  0  0  0
  8 12  1  0  0  0  0
  9  3  1  0  0  0  0
 10  2  2  0  0  0  0
 11  3  2  0  0  0  0
 12  6  1  0  0  0  0
 13 14  1  0  0  0  0
 14  6  2  0  0  0  0
 15 18  1  0  0  0  0
 16  8  2  0  0  0  0
 17 16  1  0  0  0  0
 18 17  2  0  0  0  0
 19 21  1  0  0  0  0
 20 17  1  0  0  0  0
 21 20  2  0  0  0  0
  5 13  2  0  0  0  0
 19 15  2  0  0  0  0
M  CHG  4   2   1   3   1   7  -1   9  -1
M  END
> <#>
1624

> <PLATE>
LAT021

> <ROW>
H

> <COL>
4

> <COORD>
H04

> <LATID>
LAT021H04

> <Supplier>
Chembridge

> <Suplier_CAT#>
5104582

> <Name>
Novel

> <Concentration_(mM)>
2.5

> <IC50_(µM)>
inactive

> <Yeast_Active?>
-

> <Pubchem_CID>
249347

$$$$
