
  -ISIS-  08130814242D

 21 22  0  0  0  0  0  0  0  0999 V2000
   -0.0125    0.0625    0.0000 C   0  0  0  0  0  0  0  0  0  0  0  0
   -1.4208    0.8708    0.0000 N   0  0  0  0  0  0  0  0  0  0  0  0
   -0.4833    0.8708    0.0000 N   0  0  0  0  0  0  0  0  0  0  0  0
   -0.4833   -0.7500    0.0000 O   0  0  0  0  0  0  0  0  0  0  0  0
    0.9167    0.0625    0.0000 C   0  0  0  0  0  0  0  0  0  0  0  0
   -1.8958    0.0625    0.0000 C   0  0  0  0  0  0  0  0  0  0  0  0
    1.3792   -0.7500    0.0000 O   0  0  0  0  0  0  0  0  0  0  0  0
    2.3042   -0.7500    0.0000 C   0  0  0  0  0  0  0  0  0  0  0  0
    4.1875   -0.7500    0.0000 C   0  0  0  0  0  0  0  0  0  0  0  0
   -3.2958   -0.7500    0.0000 C   0  0  0  0  0  0  0  0  0  0  0  0
   -2.8208    0.0625    0.0000 C   0  0  0  0  0  0  0  0  0  0  0  0
   -4.2333   -0.7500    0.0000 C   0  0  0  0  0  0  0  0  0  0  0  0
    5.1167   -0.7500    0.0000 Cl  0  0  0  0  0  0  0  0  0  0  0  0
   -4.7083   -1.5542    0.0000 Br  0  0  0  0  0  0  0  0  0  0  0  0
    2.7792    0.0625    0.0000 C   0  0  0  0  0  0  0  0  0  0  0  0
    2.7792   -1.5542    0.0000 C   0  0  0  0  0  0  0  0  0  0  0  0
    3.7167    0.0625    0.0000 C   0  0  0  0  0  0  0  0  0  0  0  0
    3.7167   -1.5542    0.0000 C   0  0  0  0  0  0  0  0  0  0  0  0
   -4.2333    0.8708    0.0000 C   0  0  0  0  0  0  0  0  0  0  0  0
   -4.7083    0.0625    0.0000 C   0  0  0  0  0  0  0  0  0  0  0  0
   -3.2958    0.8708    0.0000 C   0  0  0  0  0  0  0  0  0  0  0  0
  2  3  1  0  0  0  0
  3  1  1  0  0  0  0
  4  1  2  0  0  0  0
  5  1  1  0  0  0  0
  6  2  2  0  0  0  0
  7  5  1  0  0  0  0
  8  7  1  0  0  0  0
  9 18  2  0  0  0  0
 10 11  1  0  0  0  0
 11  6  1  0  0  0  0
 12 10  2  0  0  0  0
 13  9  1  0  0  0  0
 14 12  1  0  0  0  0
 15  8  1  0  0  0  0
 16  8  2  0  0  0  0
 17 15  2  0  0  0  0
 18 16  1  0  0  0  0
 19 21  1  0  0  0  0
 20 19  2  0  0  0  0
 21 11  2  0  0  0  0
 17  9  1  0  0  0  0
 20 12  1  0  0  0  0
M  END
> <#>
668

> <PLATE>
LAT009

> <ROW>
D

> <COL>
5

> <COORD>
D05

> <LATID>
LAT009D05

> <Supplier>
Chembridge

> <Suplier_CAT#>
5530447

> <Name>
Novel

> <Sec_Name>
152_G02

> <Concentration_(mM)>
2.5

> <IC50_(µM)>
0.23

> <Yeast_Active?>
-

> <Pubchem_CID>
1368074

$$$$
