
  -ISIS-  08130814242D

 25 27  0  0  0  0  0  0  0  0999 V2000
   -0.3500    0.1500    0.0000 C   0  0  0  0  0  0  0  0  0  0  0  0
   -0.9958    0.5333    0.0000 C   0  0  0  0  0  0  0  0  0  0  0  0
    2.8875   -0.9875    0.0000 N   0  3  0  0  0  0  0  0  0  0  0  0
   -0.9958    1.2708    0.0000 N   0  0  3  0  0  0  0  0  0  0  0  0
    0.3042    0.5333    0.0000 C   0  0  0  0  0  0  0  0  0  0  0  0
    2.2292   -0.6042    0.0000 C   0  0  0  0  0  0  0  0  0  0  0  0
    2.8667   -1.7500    0.0000 O   0  5  0  0  0  0  0  0  0  0  0  0
    3.5500   -0.6042    0.0000 O   0  0  0  0  0  0  0  0  0  0  0  0
    0.9500    0.1500    0.0000 C   0  0  0  0  0  0  0  0  0  0  0  0
   -1.6333    0.1500    0.0000 C   0  0  0  0  0  0  0  0  0  0  0  0
    0.3042    1.2708    0.0000 O   0  0  0  0  0  0  0  0  0  0  0  0
    1.5875   -0.9667    0.0000 C   0  0  0  0  0  0  0  0  0  0  0  0
    2.2292    0.1500    0.0000 C   0  0  0  0  0  0  0  0  0  0  0  0
    1.5875    0.5333    0.0000 C   0  0  0  0  0  0  0  0  0  0  0  0
    0.9500   -0.6042    0.0000 C   0  0  0  0  0  0  0  0  0  0  0  0
   -1.6333    1.6500    0.0000 C   0  0  0  0  0  0  0  0  0  0  0  0
   -0.3500    1.6500    0.0000 C   0  0  0  0  0  0  0  0  0  0  0  0
   -1.6333   -0.6042    0.0000 C   0  0  0  0  0  0  0  0  0  0  0  0
   -2.2708    0.5333    0.0000 C   0  0  0  0  0  0  0  0  0  0  0  0
   -1.6333    2.3958    0.0000 C   0  0  0  0  0  0  0  0  0  0  0  0
   -0.3500    2.3958    0.0000 C   0  0  0  0  0  0  0  0  0  0  0  0
   -2.9125    0.1500    0.0000 C   0  0  0  0  0  0  0  0  0  0  0  0
   -2.2708   -0.9667    0.0000 C   0  0  0  0  0  0  0  0  0  0  0  0
   -0.9958    2.7708    0.0000 C   0  0  0  0  0  0  0  0  0  0  0  0
   -2.9125   -0.6042    0.0000 C   0  0  0  0  0  0  0  0  0  0  0  0
  2  1  2  0  0  0  0
  3  6  1  0  0  0  0
  4  2  1  0  0  0  0
  5  1  1  0  0  0  0
  6 12  1  0  0  0  0
  7  3  1  0  0  0  0
  8  3  2  0  0  0  0
  9  5  1  0  0  0  0
 10  2  1  0  0  0  0
 11  5  2  0  0  0  0
 12 15  2  0  0  0  0
 13 14  1  0  0  0  0
 14  9  2  0  0  0  0
 15  9  1  0  0  0  0
 16  4  1  0  0  0  0
 17  4  1  0  0  0  0
 18 10  2  0  0  0  0
 19 10  1  0  0  0  0
 20 16  1  0  0  0  0
 21 17  1  0  0  0  0
 22 19  2  0  0  0  0
 23 18  1  0  0  0  0
 24 21  1  0  0  0  0
 25 22  1  0  0  0  0
 13  6  2  0  0  0  0
 25 23  2  0  0  0  0
 20 24  1  0  0  0  0
M  CHG  2   3   1   7  -1
M  END
> <#>
1704

> <PLATE>
LAT022

> <ROW>
H

> <COL>
4

> <COORD>
H04

> <LATID>
LAT022H04

> <Supplier>
Chembridge

> <Suplier_CAT#>
5213817

> <Name>
Novel

> <Concentration_(mM)>
2.5

> <IC50_(µM)>
>100

> <Yeast_Active?>
-

> <Pubchem_CID>
2833916

$$$$
