
  -ISIS-  08130814242D

 18 19  0  0  0  0  0  0  0  0999 V2000
    3.2167   -1.2500    0.0000 C   0  0  0  0  0  0  0  0  0  0  0  0
    3.8542   -2.3792    0.0000 C   0  0  0  0  0  0  0  0  0  0  0  0
    3.8542   -1.6292    0.0000 C   0  0  0  0  0  0  0  0  0  0  0  0
    3.2042   -2.7500    0.0000 C   0  0  0  0  0  0  0  0  0  0  0  0
    2.5667   -0.1167    0.0000 N   0  0  0  0  0  0  0  0  0  0  0  0
    2.5667   -1.6167    0.0000 C   0  0  0  0  0  0  0  0  0  0  0  0
    2.5542   -2.3667    0.0000 C   0  0  0  0  0  0  0  0  0  0  0  0
    1.2667    0.6208    0.0000 N   0  0  0  0  0  0  0  0  0  0  0  0
    1.9167    1.0000    0.0000 C   0  0  0  0  0  0  0  0  0  0  0  0
    3.2167   -0.5000    0.0000 C   0  0  0  0  0  0  0  0  0  0  0  0
    2.5667    0.6208    0.0000 N   0  0  0  0  0  0  0  0  0  0  0  0
    4.5042   -2.7500    0.0000 Br  0  0  0  0  0  0  0  0  0  0  0  0
    4.5167   -1.2500    0.0000 O   0  0  0  0  0  0  0  0  0  0  0  0
    1.9042   -2.7500    0.0000 Br  0  0  0  0  0  0  0  0  0  0  0  0
    0.6167    1.0000    0.0000 C   0  0  0  0  0  0  0  0  0  0  0  0
    1.9167    1.7500    0.0000 C   0  0  0  0  0  0  0  0  0  0  0  0
    0.6167    1.7500    0.0000 C   0  0  0  0  0  0  0  0  0  0  0  0
    1.2667    2.1333    0.0000 C   0  0  0  0  0  0  0  0  0  0  0  0
  2  3  1  0  0  0  0
  3  1  2  0  0  0  0
  4  7  1  0  0  0  0
  5 10  2  0  0  0  0
  6  1  1  0  0  0  0
  7  6  2  0  0  0  0
  8  9  1  0  0  0  0
  9 11  1  0  0  0  0
 10  1  1  0  0  0  0
 11  5  1  0  0  0  0
 12  2  1  0  0  0  0
 13  3  1  0  0  0  0
 14  7  1  0  0  0  0
 15  8  2  0  0  0  0
 16  9  2  0  0  0  0
 17 18  2  0  0  0  0
 18 16  1  0  0  0  0
  2  4  2  0  0  0  0
 15 17  1  0  0  0  0
M  END
> <#>
2039

> <PLATE>
LAT026

> <ROW>
G

> <COL>
6

> <COORD>
G06

> <LATID>
LAT026G06

> <Supplier>
Chembridge

> <Suplier_CAT#>
5492235

> <Sec_Name>
144_E04

> <Concentration_(mM)>
2.5

> <IC50_(µM)>
>100

> <Yeast_Active?>
+

> <Pubchem_CID>
NULL

$$$$
