
  -ISIS-  08130814242D

 12 12  0  0  0  0  0  0  0  0999 V2000
   -0.6375   -0.2767    0.0000 C   0  0  0  0  0  0  0  0  0  0  0  0
   -1.2625   -1.3592    0.0000 C   0  0  2  0  0  0  0  0  0  0  0  0
   -0.6375   -2.4417    0.0000 O   0  0  0  0  0  0  0  0  0  0  0  0
   -2.5125   -1.3592    0.0000 C   0  0  1  0  0  0  0  0  0  0  0  0
   -3.1375   -2.4417    0.0000 O   0  0  0  0  0  0  0  0  0  0  0  0
   -3.1375   -0.2767    0.0000 C   0  0  2  0  0  0  0  0  0  0  0  0
   -4.3875   -0.2767    0.0000 O   0  0  0  0  0  0  0  0  0  0  0  0
   -2.5125    0.8059    0.0000 C   0  0  1  0  0  0  0  0  0  0  0  0
   -3.1375    1.8884    0.0000 C   0  0  0  0  0  0  0  0  0  0  0  0
   -2.5125    2.9709    0.0000 O   0  0  0  0  0  0  0  0  0  0  0  0
    0.6125   -0.2767    0.0000 O   0  0  0  0  0  0  0  0  0  0  0  0
   -1.2625    0.8059    0.0000 O   0  0  0  0  0  0  0  0  0  0  0  0
  1  2  1  0  0  0  0
  2  3  1  6  0  0  0
  2  4  1  0  0  0  0
  4  5  1  1  0  0  0
  4  6  1  0  0  0  0
  6  7  1  6  0  0  0
  6  8  1  0  0  0  0
  8  9  1  1  0  0  0
  9 10  1  0  0  0  0
  1 11  2  0  0  0  0
  1 12  1  0  0  0  0
  8 12  1  0  0  0  0
M  END
> <#>
410

> <PLATE>
LAT006

> <ROW>
B

> <COL>
3

> <COORD>
B03

> <LATID>
LAT006B03

> <Supplier>
Aldrich

> <Suplier_CAT#>
G200-1

> <Name>
Delta-Gluconolactone

> <Concentration_(mM)>
2.5

> <IC50_(µM)>
inactive

> <Yeast_Active?>
-

> <Pubchem_CID>
736

$$$$
