
  -ISIS-  08130814242D

 23 24  0  0  0  0  0  0  0  0999 V2000
   -2.2708   -0.6167    0.0000 N   0  0  3  0  0  0  0  0  0  0  0  0
   -2.2708   -1.5792    0.0000 C   0  0  0  0  0  0  0  0  0  0  0  0
   -0.7958   -1.1292    0.0000 C   0  0  0  0  0  0  0  0  0  0  0  0
   -1.3500   -0.3500    0.0000 C   0  0  0  0  0  0  0  0  0  0  0  0
    1.1667    0.5500    0.0000 C   0  0  0  0  0  0  0  0  0  0  0  0
   -1.3500   -1.9042    0.0000 S   0  0  0  0  0  0  0  0  0  0  0  0
    0.1500   -1.1292    0.0000 C   0  0  0  0  0  0  0  0  0  0  0  0
    2.1167    0.5500    0.0000 C   0  0  0  0  0  0  0  0  0  0  0  0
    0.7000    1.3708    0.0000 C   0  0  0  0  0  0  0  0  0  0  0  0
    2.6000    1.3833    0.0000 C   0  0  0  0  0  0  0  0  0  0  0  0
    1.1667    2.2083    0.0000 C   0  0  0  0  0  0  0  0  0  0  0  0
    2.1167    2.2083    0.0000 C   0  0  0  0  0  0  0  0  0  0  0  0
   -3.0500   -2.1500    0.0000 S   0  0  0  0  0  0  0  0  0  0  0  0
   -1.0458    0.5208    0.0000 O   0  0  0  0  0  0  0  0  0  0  0  0
   -3.0625   -0.0292    0.0000 C   0  0  0  0  0  0  0  0  0  0  0  0
   -2.9500    0.9500    0.0000 C   0  0  0  0  0  0  0  0  0  0  0  0
    2.6000   -0.2542    0.0000 Br  0  0  0  0  0  0  0  0  0  0  0  0
    3.5292    1.3958    0.0000 Br  0  0  0  0  0  0  0  0  0  0  0  0
   -3.7500    1.5500    0.0000 C   0  0  0  0  0  0  0  0  0  0  0  0
   -0.2458    1.3708    0.0000 O   0  0  0  0  0  0  0  0  0  0  0  0
    0.7042    3.0208    0.0000 O   0  0  0  0  0  0  0  0  0  0  0  0
    1.2000    3.8625    0.0000 C   0  0  0  0  0  0  0  0  0  0  0  0
    2.1167    3.9000    0.0000 C   0  0  0  0  0  0  0  0  0  0  0  0
  2  1  1  0  0  0  0
  3  4  1  0  0  0  0
  4  1  1  0  0  0  0
  5  7  1  0  0  0  0
  6  2  1  0  0  0  0
  7  3  2  0  0  0  0
  8  5  2  0  0  0  0
  9  5  1  0  0  0  0
 10  8  1  0  0  0  0
 11  9  2  0  0  0  0
 12 11  1  0  0  0  0
 13  2  2  0  0  0  0
 14  4  2  0  0  0  0
 15  1  1  0  0  0  0
 16 15  1  0  0  0  0
 17  8  1  0  0  0  0
 18 10  1  0  0  0  0
 19 16  2  0  0  0  0
 20  9  1  0  0  0  0
 21 11  1  0  0  0  0
 22 21  1  0  0  0  0
 23 22  1  0  0  0  0
  3  6  1  0  0  0  0
 10 12  2  0  0  0  0
M  END
> <#>
2076

> <PLATE>
LAT026

> <ROW>
D

> <COL>
11

> <COORD>
D11

> <LATID>
LAT026D11

> <Supplier>
Chembridge

> <Suplier_CAT#>
5676534

> <Sec_Name>
214_F08

> <Concentration_(mM)>
2.5

> <IC50_(µM)>
inactive

> <Yeast_Active?>
-

> <Pubchem_CID>
1356596

$$$$
