
  -ISIS-  08130814242D

 20 21  0  0  0  0  0  0  0  0999 V2000
    2.9500   -1.5542    0.0000 C   0  0  0  0  0  0  0  0  0  0  0  0
    4.2500   -1.5542    0.0000 N   0  0  0  0  0  0  0  0  0  0  0  0
    3.6000   -1.9375    0.0000 N   0  0  0  0  0  0  0  0  0  0  0  0
    1.6500   -1.5542    0.0000 O   0  0  0  0  0  0  0  0  0  0  0  0
    2.9500   -0.8042    0.0000 O   0  0  0  0  0  0  0  0  0  0  0  0
    1.0000   -1.9375    0.0000 C   0  0  0  0  0  0  0  0  0  0  0  0
    6.2000   -0.4375    0.0000 N   0  0  0  0  0  0  0  0  0  0  0  0
    2.3000   -1.9375    0.0000 C   0  0  0  0  0  0  0  0  0  0  0  0
    4.9000   -1.9375    0.0000 C   0  0  0  0  0  0  0  0  0  0  0  0
    0.3375   -1.5542    0.0000 C   0  0  0  0  0  0  0  0  0  0  0  0
    5.5500   -1.5667    0.0000 C   0  0  0  0  0  0  0  0  0  0  0  0
    5.5500   -0.8167    0.0000 C   0  0  0  0  0  0  0  0  0  0  0  0
    6.8500   -0.8167    0.0000 C   0  0  0  0  0  0  0  0  0  0  0  0
    1.0000   -2.6875    0.0000 C   0  0  0  0  0  0  0  0  0  0  0  0
    0.3375   -0.8042    0.0000 C   0  0  0  0  0  0  0  0  0  0  0  0
    6.1875   -1.9375    0.0000 C   0  0  0  0  0  0  0  0  0  0  0  0
   -0.3000   -1.9375    0.0000 C   0  0  0  0  0  0  0  0  0  0  0  0
    6.8375   -1.5667    0.0000 C   0  0  0  0  0  0  0  0  0  0  0  0
    0.3375   -3.0667    0.0000 C   0  0  0  0  0  0  0  0  0  0  0  0
   -0.3000   -2.6875    0.0000 C   0  0  0  0  0  0  0  0  0  0  0  0
  2  3  1  0  0  0  0
  3  1  1  0  0  0  0
  4  8  1  0  0  0  0
  5  1  2  0  0  0  0
  6  4  1  0  0  0  0
  7 12  1  0  0  0  0
  8  1  1  0  0  0  0
  9  2  2  0  0  0  0
 10  6  1  0  0  0  0
 11  9  1  0  0  0  0
 12 11  2  0  0  0  0
 13 18  1  0  0  0  0
 14  6  2  0  0  0  0
 15 10  1  0  0  0  0
 16 11  1  0  0  0  0
 17 10  2  0  0  0  0
 18 16  2  0  0  0  0
 19 14  1  0  0  0  0
 20 19  2  0  0  0  0
 20 17  1  0  0  0  0
  7 13  2  0  0  0  0
M  END
> <#>
1000

> <PLATE>
LAT013

> <ROW>
H

> <COL>
6

> <COORD>
H06

> <LATID>
LAT013H06

> <Supplier>
Chembridge

> <Suplier_CAT#>
5467666

> <Name>
Novel

> <Sec_Name>
131_F07

> <Concentration_(mM)>
2.5

> <IC50_(µM)>
17

> <Yeast_Active?>
-

> <Pubchem_CID>
772965

$$$$
