
  -ISIS-  08130814242D

 20 21  0  0  0  0  0  0  0  0999 V2000
    7.0167    2.5583    0.0000 C   0  0  3  0  0  0  0  0  0  0  0  0
    4.4167    2.5583    0.0000 C   0  0  0  0  0  0  0  0  0  0  0  0
    6.3667    2.1833    0.0000 C   0  0  0  0  0  0  0  0  0  0  0  0
    5.0667    2.1833    0.0000 C   0  0  0  0  0  0  0  0  0  0  0  0
    5.7167    2.5583    0.0000 C   0  0  0  0  0  0  0  0  0  0  0  0
    3.7667    2.1833    0.0000 N   0  0  0  0  0  0  0  0  0  0  0  0
    1.8167    2.5583    0.0000 N   0  0  0  0  0  0  0  0  0  0  0  0
    4.4167    3.3083    0.0000 O   0  0  0  0  0  0  0  0  0  0  0  0
    7.5417    2.0333    0.0000 F   0  0  0  0  0  0  0  0  0  0  0  0
    7.5917    3.0458    0.0000 F   0  0  0  0  0  0  0  0  0  0  0  0
    6.5875    3.1708    0.0000 F   0  0  0  0  0  0  0  0  0  0  0  0
    3.1167    2.5583    0.0000 C   0  0  0  0  0  0  0  0  0  0  0  0
    2.4667    2.1833    0.0000 C   0  0  0  0  0  0  0  0  0  0  0  0
    6.3667    1.4333    0.0000 C   0  0  0  0  0  0  0  0  0  0  0  0
    5.0667    1.4333    0.0000 C   0  0  0  0  0  0  0  0  0  0  0  0
    5.7167    1.0583    0.0000 C   0  0  0  0  0  0  0  0  0  0  0  0
    1.1667    2.1833    0.0000 C   0  0  0  0  0  0  0  0  0  0  0  0
    2.4667    1.4333    0.0000 C   0  0  0  0  0  0  0  0  0  0  0  0
    1.1667    1.4333    0.0000 C   0  0  0  0  0  0  0  0  0  0  0  0
    1.8167    1.0583    0.0000 C   0  0  0  0  0  0  0  0  0  0  0  0
  2  4  1  0  0  0  0
  3  1  1  0  0  0  0
  4  5  2  0  0  0  0
  5  3  1  0  0  0  0
  6  2  1  0  0  0  0
  7 13  2  0  0  0  0
  8  2  2  0  0  0  0
  9  1  1  0  0  0  0
 10  1  1  0  0  0  0
 11  1  1  0  0  0  0
 12  6  1  0  0  0  0
 13 12  1  0  0  0  0
 14  3  2  0  0  0  0
 15 16  2  0  0  0  0
 16 14  1  0  0  0  0
 17  7  1  0  0  0  0
 18 13  1  0  0  0  0
 19 20  1  0  0  0  0
 20 18  2  0  0  0  0
 15  4  1  0  0  0  0
 17 19  2  0  0  0  0
M  END
> <#>
1506

> <PLATE>
LAT019

> <ROW>
B

> <COL>
10

> <COORD>
B10

> <LATID>
LAT019B10

> <Supplier>
Chembridge

> <Suplier_CAT#>
7948710

> <Name>
Novel

> <Concentration_(mM)>
2.5

> <IC50_(µM)>
>100

> <Yeast_Active?>
-

> <Pubchem_CID>
2971402

$$$$
