
  -ISIS-  08130814242D

 23 24  0  0  0  0  0  0  0  0999 V2000
   -0.3708    0.7000    0.0000 C   0  0  0  0  0  0  0  0  0  0  0  0
    1.3667   -0.2875    0.0000 S   0  0  3  0  0  0  0  0  0  0  0  0
    0.7875    0.0458    0.0000 C   0  0  0  0  0  0  0  0  0  0  0  0
   -0.3708    0.0458    0.0000 C   0  0  0  0  0  0  0  0  0  0  0  0
   -0.9500    1.0333    0.0000 C   0  0  0  0  0  0  0  0  0  0  0  0
    0.2042    1.0333    0.0000 C   0  0  0  0  0  0  0  0  0  0  0  0
    0.7875    0.7000    0.0000 C   0  0  0  0  0  0  0  0  0  0  0  0
   -0.9500   -0.2875    0.0000 C   0  0  0  0  0  0  0  0  0  0  0  0
   -1.5333    0.7000    0.0000 C   0  0  0  0  0  0  0  0  0  0  0  0
   -1.5333    0.0458    0.0000 C   0  0  0  0  0  0  0  0  0  0  0  0
    0.2042   -0.2875    0.0000 C   0  0  0  0  0  0  0  0  0  0  0  0
    1.0375   -0.8667    0.0000 O   0  5  0  0  0  0  0  0  0  0  0  0
    1.6792    0.2833    0.0000 O   0  0  0  0  0  0  0  0  0  0  0  0
    2.0000   -0.6167    0.0000 O   0  0  0  0  0  0  0  0  0  0  0  0
   -0.9708    1.8208    0.0000 O   0  0  0  0  0  0  0  0  0  0  0  0
   -0.9708   -0.8167    0.0000 O   0  0  0  0  0  0  0  0  0  0  0  0
    0.1667    1.8208    0.0000 O   0  0  0  0  0  0  0  0  0  0  0  0
    1.5042    1.1125    0.0000 O   0  0  0  0  0  0  0  0  0  0  0  0
   -2.1125    1.0333    0.0000 C   0  0  0  0  0  0  0  0  0  0  0  0
   -2.1125   -0.2875    0.0000 C   0  0  0  0  0  0  0  0  0  0  0  0
   -2.6958    0.0458    0.0000 C   0  0  0  0  0  0  0  0  0  0  0  0
   -2.6958    0.7000    0.0000 C   0  0  0  0  0  0  0  0  0  0  0  0
    3.1000    0.0625    0.0000 Na  0  3  0  0  0  0  0  0  0  0  0  0
  2  3  1  0  0  0  0
  3  7  2  0  0  0  0
  4  1  1  0  0  0  0
  5  1  1  0  0  0  0
  6  1  2  0  0  0  0
  7  6  1  0  0  0  0
  8  4  1  0  0  0  0
  9  5  1  0  0  0  0
 10  9  2  0  0  0  0
 11  4  2  0  0  0  0
 12  2  1  0  0  0  0
 13  2  2  0  0  0  0
 14  2  2  0  0  0  0
 15  5  2  0  0  0  0
 16  8  2  0  0  0  0
 17  6  1  0  0  0  0
 18  7  1  0  0  0  0
 19  9  1  0  0  0  0
 20 10  1  0  0  0  0
 21 22  1  0  0  0  0
 22 19  2  0  0  0  0
 11  3  1  0  0  0  0
 10  8  1  0  0  0  0
 21 20  2  0  0  0  0
M  CHG  2  12  -1  23   1
M  END
> <#>
1124

> <PLATE>
LAT015

> <ROW>
D

> <COL>
2

> <COORD>
D02

> <LATID>
LAT015D02

> <Supplier>
Chembridge

> <Suplier_CAT#>
5211794

> <Name>
Novel

> <Concentration_(mM)>
2.5

> <IC50_(µM)>
>100

> <Yeast_Active?>
-

> <Pubchem_CID>
NULL

$$$$
