
  -ISIS-  08130814242D

 16 17  0  0  0  0  0  0  0  0999 V2000
   -1.0965   -0.1571    0.0000 C   0  0  0  0  0  0  0  0  0  0  0  0
   -1.9889   -0.1571    0.0000 C   0  0  0  0  0  0  0  0  0  0  0  0
   -2.8812   -0.1571    0.0000 C   0  0  0  0  0  0  0  0  0  0  0  0
   -3.3273   -0.9299    0.0000 O   0  0  0  0  0  0  0  0  0  0  0  0
   -0.2042   -0.1571    0.0000 C   0  0  0  0  0  0  0  0  0  0  0  0
    0.2419    0.6156    0.0000 C   0  0  0  0  0  0  0  0  0  0  0  0
    1.1343    0.6156    0.0000 C   0  0  0  0  0  0  0  0  0  0  0  0
    1.5804   -0.1571    0.0000 C   0  0  0  0  0  0  0  0  0  0  0  0
    1.1343   -0.9299    0.0000 C   0  0  0  0  0  0  0  0  0  0  0  0
    0.2419   -0.9299    0.0000 C   0  0  0  0  0  0  0  0  0  0  0  0
   -3.3273    0.6156    0.0000 C   0  0  0  0  0  0  0  0  0  0  0  0
   -4.2197    0.6156    0.0000 C   0  0  0  0  0  0  0  0  0  0  0  0
   -4.6658    1.3884    0.0000 C   0  0  0  0  0  0  0  0  0  0  0  0
   -4.2197    2.1612    0.0000 C   0  0  0  0  0  0  0  0  0  0  0  0
   -3.3273    2.1612    0.0000 C   0  0  0  0  0  0  0  0  0  0  0  0
   -2.8812    1.3884    0.0000 C   0  0  0  0  0  0  0  0  0  0  0  0
  1  2  3  0  0  0  0
  2  3  1  0  0  0  0
  3  4  2  0  0  0  0
  5  6  1  0  0  0  0
  6  7  2  0  0  0  0
  7  8  1  0  0  0  0
  8  9  2  0  0  0  0
  9 10  1  0  0  0  0
  5 10  2  0  0  0  0
  1  5  1  0  0  0  0
 11 12  1  0  0  0  0
 12 13  2  0  0  0  0
 13 14  1  0  0  0  0
 14 15  2  0  0  0  0
 15 16  1  0  0  0  0
 11 16  2  0  0  0  0
  3 11  1  0  0  0  0
M  END
> <#>
475

> <PLATE>
LAT006

> <ROW>
C

> <COL>
11

> <COORD>
C11

> <LATID>
LAT006C11

> <Supplier>
Aldrich

> <Suplier_CAT#>
510815

> <Name>
Diphenylpropynone

> <Concentration_(mM)>
2.5

> <IC50_(µM)>
55

> <Yeast_Active?>
+

> <Pubchem_CID>
97637

$$$$
