
  -ISIS-  08130814242D

 22 23  0  0  0  0  0  0  0  0999 V2000
    0.7667    3.0000    0.0000 C   0  0  0  0  0  0  0  0  0  0  0  0
    0.0875    3.3958    0.0000 C   0  0  0  0  0  0  0  0  0  0  0  0
    0.7667    2.2125    0.0000 C   0  0  0  0  0  0  0  0  0  0  0  0
   -2.6333    1.8208    0.0000 C   0  0  0  0  0  0  0  0  0  0  0  0
   -0.5958    2.9958    0.0000 C   0  0  0  0  0  0  0  0  0  0  0  0
    0.0875    1.8125    0.0000 C   0  0  0  0  0  0  0  0  0  0  0  0
   -3.3125    2.2208    0.0000 C   0  0  0  0  0  0  0  0  0  0  0  0
   -2.6333    1.0333    0.0000 C   0  0  0  0  0  0  0  0  0  0  0  0
   -0.5958    2.2125    0.0000 C   0  0  0  0  0  0  0  0  0  0  0  0
   -3.9958    1.0333    0.0000 C   0  0  0  0  0  0  0  0  0  0  0  0
   -3.9958    1.8208    0.0000 C   0  0  0  0  0  0  0  0  0  0  0  0
   -3.3125    0.6458    0.0000 C   0  0  0  0  0  0  0  0  0  0  0  0
   -1.9708    2.2125    0.0000 N   0  0  0  0  0  0  0  0  0  0  0  0
    0.0875    4.1667    0.0000 I   0  0  0  0  0  0  0  0  0  0  0  0
    1.4500    3.4000    0.0000 O   0  0  0  0  0  0  0  0  0  0  0  0
   -1.2833    1.8208    0.0000 C   0  0  0  0  0  0  0  0  0  0  0  0
    1.4500    1.8208    0.0000 O   0  0  0  0  0  0  0  0  0  0  0  0
   -4.6625    2.2083    0.0000 O   0  0  0  0  0  0  0  0  0  0  0  0
   -3.3125   -0.1375    0.0000 O   0  0  0  0  0  0  0  0  0  0  0  0
    1.4500    1.0500    0.0000 C   0  0  0  0  0  0  0  0  0  0  0  0
   -3.9708   -0.5167    0.0000 C   0  0  0  0  0  0  0  0  0  0  0  0
   -4.6625    2.9625    0.0000 C   0  0  0  0  0  0  0  0  0  0  0  0
  2  1  2  0  0  0  0
  3  1  1  0  0  0  0
  4 13  1  0  0  0  0
  5  2  1  0  0  0  0
  6  3  2  0  0  0  0
  7  4  1  0  0  0  0
  8  4  2  0  0  0  0
  9  6  1  0  0  0  0
 10 12  2  0  0  0  0
 11  7  2  0  0  0  0
 12  8  1  0  0  0  0
 13 16  1  0  0  0  0
 14  2  1  0  0  0  0
 15  1  1  0  0  0  0
 16  9  1  0  0  0  0
 17  3  1  0  0  0  0
 18 11  1  0  0  0  0
 19 12  1  0  0  0  0
 20 17  1  0  0  0  0
 21 19  1  0  0  0  0
 22 18  1  0  0  0  0
  9  5  2  0  0  0  0
 10 11  1  0  0  0  0
M  END
> <#>
999

> <PLATE>
LAT013

> <ROW>
G

> <COL>
6

> <COORD>
G06

> <LATID>
LAT013G06

> <Supplier>
Chembridge

> <Suplier_CAT#>
5458486

> <Name>
Novel

> <Sec_Name>
127_G03

> <Concentration_(mM)>
2.5

> <IC50_(µM)>
>100

> <Yeast_Active?>
-

> <Pubchem_CID>
1378382

$$$$
