
  -ISIS-  08130814242D

 18 19  0  0  0  0  0  0  0  0999 V2000
   -0.4000    2.2125    0.0000 S   0  0  3  0  0  0  0  0  0  0  0  0
   -0.9833    1.8958    0.0000 C   0  0  0  0  0  0  0  0  0  0  0  0
   -0.0833    1.6333    0.0000 N   0  0  0  0  0  0  0  0  0  0  0  0
   -0.4458    1.0708    0.0000 C   0  0  0  0  0  0  0  0  0  0  0  0
    0.1792    2.5208    0.0000 O   0  0  0  0  0  0  0  0  0  0  0  0
   -0.7000    2.7958    0.0000 O   0  0  0  0  0  0  0  0  0  0  0  0
   -1.5458    2.2333    0.0000 C   0  0  0  0  0  0  0  0  0  0  0  0
   -0.1458    0.4958    0.0000 C   0  0  0  0  0  0  0  0  0  0  0  0
   -2.1000    1.9125    0.0000 C   0  0  0  0  0  0  0  0  0  0  0  0
   -0.9833    1.2708    0.0000 C   0  0  0  0  0  0  0  0  0  0  0  0
    0.5167    0.4500    0.0000 O   0  0  0  0  0  0  0  0  0  0  0  0
   -2.1000    1.2500    0.0000 C   0  0  0  0  0  0  0  0  0  0  0  0
   -1.5458    0.9333    0.0000 C   0  0  0  0  0  0  0  0  0  0  0  0
   -0.4833   -0.0500    0.0000 O   0  0  0  0  0  0  0  0  0  0  0  0
   -2.6625    2.2333    0.0000 C   0  0  0  0  0  0  0  0  0  0  0  0
   -2.6625    0.9333    0.0000 C   0  0  0  0  0  0  0  0  0  0  0  0
   -3.2208    1.8958    0.0000 C   0  0  0  0  0  0  0  0  0  0  0  0
   -3.2208    1.2708    0.0000 C   0  0  0  0  0  0  0  0  0  0  0  0
  2  1  1  0  0  0  0
  3  1  1  0  0  0  0
  4  3  1  0  0  0  0
  5  1  2  0  0  0  0
  6  1  2  0  0  0  0
  7  2  1  0  0  0  0
  8  4  1  0  0  0  0
  9  7  2  0  0  0  0
 10  2  2  0  0  0  0
 11  8  2  0  0  0  0
 12 13  2  0  0  0  0
 13 10  1  0  0  0  0
 14  8  1  0  0  0  0
 15  9  1  0  0  0  0
 16 12  1  0  0  0  0
 17 15  2  0  0  0  0
 18 16  2  0  0  0  0
  9 12  1  0  0  0  0
 17 18  1  0  0  0  0
M  END
> <#>
2071

> <PLATE>
LAT026

> <ROW>
G

> <COL>
10

> <COORD>
G10

> <LATID>
LAT026G10

> <Supplier>
Chembridge

> <Suplier_CAT#>
5664332

> <Sec_Name>
207_C05

> <Concentration_(mM)>
2.5

> <IC50_(µM)>
inactive

> <Yeast_Active?>
-

> <Pubchem_CID>
702481

$$$$
