
  -ISIS-  08130814242D

 21 22  0  0  0  0  0  0  0  0999 V2000
    8.2625    1.1250    0.0000 C   0  0  0  0  0  0  0  0  0  0  0  0
    7.6125    1.5000    0.0000 N   0  0  0  0  0  0  0  0  0  0  0  0
    8.9125    1.5000    0.0000 C   0  0  0  0  0  0  0  0  0  0  0  0
    6.9667    1.1250    0.0000 C   0  0  0  0  0  0  0  0  0  0  0  0
    6.3167    1.5000    0.0000 C   0  0  0  0  0  0  0  0  0  0  0  0
    9.5625    1.1250    0.0000 N   0  0  0  0  0  0  0  0  0  0  0  0
    5.6667    1.1250    0.0000 C   0  0  0  0  0  0  0  0  0  0  0  0
    8.2625    0.3750    0.0000 O   0  0  0  0  0  0  0  0  0  0  0  0
   10.8625    0.3750    0.0000 N   0  0  0  0  0  0  0  0  0  0  0  0
    8.9125    2.2500    0.0000 O   0  0  0  0  0  0  0  0  0  0  0  0
    6.9667    0.3750    0.0000 C   0  0  0  0  0  0  0  0  0  0  0  0
    5.6667    0.3750    0.0000 C   0  0  0  0  0  0  0  0  0  0  0  0
   10.2042    1.5000    0.0000 C   0  0  0  0  0  0  0  0  0  0  0  0
   10.8625    1.1250    0.0000 C   0  0  0  0  0  0  0  0  0  0  0  0
    6.3167    2.2500    0.0000 F   0  0  0  0  0  0  0  0  0  0  0  0
    6.3167    0.0000    0.0000 C   0  0  0  0  0  0  0  0  0  0  0  0
    5.0167    0.0000    0.0000 F   0  0  0  0  0  0  0  0  0  0  0  0
   11.5125    0.0000    0.0000 C   0  0  0  0  0  0  0  0  0  0  0  0
   11.5125    1.5000    0.0000 C   0  0  0  0  0  0  0  0  0  0  0  0
   12.1625    0.3750    0.0000 C   0  0  0  0  0  0  0  0  0  0  0  0
   12.1625    1.1250    0.0000 C   0  0  0  0  0  0  0  0  0  0  0  0
  2  1  1  0  0  0  0
  3  1  1  0  0  0  0
  4  2  1  0  0  0  0
  5  4  1  0  0  0  0
  6  3  1  0  0  0  0
  7  5  2  0  0  0  0
  8  1  2  0  0  0  0
  9 14  1  0  0  0  0
 10  3  2  0  0  0  0
 11  4  2  0  0  0  0
 12 16  2  0  0  0  0
 13  6  1  0  0  0  0
 14 13  1  0  0  0  0
 15  5  1  0  0  0  0
 16 11  1  0  0  0  0
 17 12  1  0  0  0  0
 18  9  2  0  0  0  0
 19 14  2  0  0  0  0
 20 21  2  0  0  0  0
 21 19  1  0  0  0  0
  7 12  1  0  0  0  0
 20 18  1  0  0  0  0
M  END
> <#>
1439

> <PLATE>
LAT018

> <ROW>
G

> <COL>
11

> <COORD>
G11

> <LATID>
LAT018G11

> <Supplier>
Chembridge

> <Suplier_CAT#>
9002989

> <Name>
Novel

> <Concentration_(mM)>
2.5

> <IC50_(µM)>
inactive

> <Yeast_Active?>
-

> <Pubchem_CID>
2990158

$$$$
