
  -ISIS-  08130814242D

 20 21  0  0  0  0  0  0  0  0999 V2000
    2.9292    1.1625    0.0000 N   0  3  0  0  0  0  0  0  0  0  0  0
    2.2542    1.5625    0.0000 C   0  0  0  0  0  0  0  0  0  0  0  0
    0.2375    1.2958    0.0000 C   0  0  0  0  0  0  0  0  0  0  0  0
    0.9292    1.5625    0.0000 C   0  0  0  0  0  0  0  0  0  0  0  0
    1.6000    1.1833    0.0000 C   0  0  0  0  0  0  0  0  0  0  0  0
   -0.8833    1.2708    0.0000 N   0  0  0  0  0  0  0  0  0  0  0  0
    2.9875    0.3708    0.0000 O   0  5  0  0  0  0  0  0  0  0  0  0
    3.6375    1.4958    0.0000 O   0  0  0  0  0  0  0  0  0  0  0  0
   -0.2625    1.6000    0.0000 N   0  0  0  0  0  0  0  0  0  0  0  0
    0.2375    0.6833    0.0000 O   0  0  0  0  0  0  0  0  0  0  0  0
   -2.8000   -0.2000    0.0000 N   0  0  0  0  0  0  0  0  0  0  0  0
   -1.4208    1.6000    0.0000 C   0  0  0  0  0  0  0  0  0  0  0  0
   -1.9958    1.2125    0.0000 C   0  0  0  0  0  0  0  0  0  0  0  0
   -1.9958    0.2708    0.0000 C   0  0  0  0  0  0  0  0  0  0  0  0
    2.2542    2.3333    0.0000 C   0  0  0  0  0  0  0  0  0  0  0  0
    0.9292    2.3333    0.0000 C   0  0  0  0  0  0  0  0  0  0  0  0
    1.6000    2.7125    0.0000 C   0  0  0  0  0  0  0  0  0  0  0  0
   -3.6125    0.2708    0.0000 C   0  0  0  0  0  0  0  0  0  0  0  0
   -2.8000    1.6833    0.0000 C   0  0  0  0  0  0  0  0  0  0  0  0
   -3.6125    1.2125    0.0000 C   0  0  0  0  0  0  0  0  0  0  0  0
  2  1  1  0  0  0  0
  3  4  1  0  0  0  0
  4  5  2  0  0  0  0
  5  2  1  0  0  0  0
  6  9  1  0  0  0  0
  7  1  1  0  0  0  0
  8  1  2  0  0  0  0
  9  3  1  0  0  0  0
 10  3  2  0  0  0  0
 11 14  1  0  0  0  0
 12  6  2  0  0  0  0
 13 12  1  0  0  0  0
 14 13  2  0  0  0  0
 15  2  2  0  0  0  0
 16 17  2  0  0  0  0
 17 15  1  0  0  0  0
 18 20  1  0  0  0  0
 19 13  1  0  0  0  0
 20 19  2  0  0  0  0
 16  4  1  0  0  0  0
 18 11  2  0  0  0  0
M  CHG  2   1   1   7  -1
M  END
> <#>
1627

> <PLATE>
LAT021

> <ROW>
C

> <COL>
5

> <COORD>
C05

> <LATID>
LAT021C05

> <Supplier>
Chembridge

> <Suplier_CAT#>
5104607

> <Name>
Novel

> <Concentration_(mM)>
2.5

> <IC50_(µM)>
>100

> <Yeast_Active?>
-

> <Pubchem_CID>
310089

$$$$
