
  -ISIS-  08130814242D

 30 33  0  0  0  0  0  0  0  0999 V2000
    3.1542    1.1750    0.0000 S   0  0  3  0  0  0  0  0  0  0  0  0
    2.5917    1.6833    0.0000 N   0  0  3  0  0  0  0  0  0  0  0  0
    1.8625    1.5208    0.0000 C   0  0  0  0  0  0  0  0  0  0  0  0
    3.7792    1.5833    0.0000 C   0  0  0  0  0  0  0  0  0  0  0  0
    2.6750    2.4250    0.0000 C   0  0  0  0  0  0  0  0  0  0  0  0
    2.6042    0.6625    0.0000 O   0  0  0  0  0  0  0  0  0  0  0  0
    3.6125    0.5833    0.0000 O   0  0  0  0  0  0  0  0  0  0  0  0
    6.9667    2.8833    0.0000 C   0  0  0  0  0  0  0  0  0  0  0  0
    1.4875    2.1708    0.0000 C   0  0  0  0  0  0  0  0  0  0  0  0
    7.6292    2.5375    0.0000 N   0  0  0  0  0  0  0  0  0  0  0  0
    8.9667    1.8583    0.0000 N   0  0  0  0  0  0  0  0  0  0  0  0
    1.9875    2.7333    0.0000 C   0  0  0  0  0  0  0  0  0  0  0  0
    6.9250    3.6250    0.0000 O   0  0  0  0  0  0  0  0  0  0  0  0
    4.4500    1.2458    0.0000 C   0  0  0  0  0  0  0  0  0  0  0  0
    3.7417    2.3333    0.0000 C   0  0  0  0  0  0  0  0  0  0  0  0
    5.6667    2.8083    0.0000 O   0  0  0  0  0  0  0  0  0  0  0  0
    6.3375    2.4708    0.0000 C   0  0  0  0  0  0  0  0  0  0  0  0
    8.9292    2.6083    0.0000 C   0  0  0  0  0  0  0  0  0  0  0  0
    5.0417    2.4000    0.0000 C   0  0  0  0  0  0  0  0  0  0  0  0
    8.2625    2.9458    0.0000 C   0  0  0  0  0  0  0  0  0  0  0  0
    4.3667    2.7458    0.0000 C   0  0  0  0  0  0  0  0  0  0  0  0
    5.0792    1.6583    0.0000 C   0  0  0  0  0  0  0  0  0  0  0  0
    1.4875    0.8708    0.0000 C   0  0  0  0  0  0  0  0  0  0  0  0
    9.6375    1.5208    0.0000 C   0  0  0  0  0  0  0  0  0  0  0  0
    0.7375    2.1708    0.0000 C   0  0  0  0  0  0  0  0  0  0  0  0
    9.5625    3.0208    0.0000 C   0  0  0  0  0  0  0  0  0  0  0  0
    0.7375    0.8708    0.0000 C   0  0  0  0  0  0  0  0  0  0  0  0
   10.2667    1.9250    0.0000 C   0  0  0  0  0  0  0  0  0  0  0  0
    0.3625    1.5208    0.0000 C   0  0  0  0  0  0  0  0  0  0  0  0
   10.2292    2.6750    0.0000 C   0  0  0  0  0  0  0  0  0  0  0  0
  2  1  1  0  0  0  0
  3  2  1  0  0  0  0
  4  1  1  0  0  0  0
  5  2  1  0  0  0  0
  6  1  2  0  0  0  0
  7  1  2  0  0  0  0
  8 17  1  0  0  0  0
  9  3  2  0  0  0  0
 10  8  1  0  0  0  0
 11 18  2  0  0  0  0
 12  5  1  0  0  0  0
 13  8  2  0  0  0  0
 14  4  2  0  0  0  0
 15  4  1  0  0  0  0
 16 19  1  0  0  0  0
 17 16  1  0  0  0  0
 18 20  1  0  0  0  0
 19 21  1  0  0  0  0
 20 10  1  0  0  0  0
 21 15  2  0  0  0  0
 22 14  1  0  0  0  0
 23  3  1  0  0  0  0
 24 11  1  0  0  0  0
 25  9  1  0  0  0  0
 26 18  1  0  0  0  0
 27 23  2  0  0  0  0
 28 30  1  0  0  0  0
 29 27  1  0  0  0  0
 30 26  2  0  0  0  0
 22 19  2  0  0  0  0
 12  9  1  0  0  0  0
 25 29  2  0  0  0  0
 24 28  2  0  0  0  0
M  END
> <#>
1499

> <PLATE>
LAT019

> <ROW>
C

> <COL>
9

> <COORD>
C09

> <LATID>
LAT019C09

> <Supplier>
Chembridge

> <Suplier_CAT#>
7992567

> <Name>
Novel

> <Concentration_(mM)>
2.5

> <IC50_(µM)>
72

> <Yeast_Active?>
-

> <Pubchem_CID>
2985082

$$$$
