
  -ISIS-  08130814242D

 26 28  0  0  0  0  0  0  0  0999 V2000
    3.1042    0.1333    0.0000 C   0  0  0  0  0  0  0  0  0  0  0  0
    4.9375    2.7083    0.0000 C   0  0  0  0  0  0  0  0  0  0  0  0
    4.9667   -2.4292    0.0000 S   0  0  0  0  0  0  0  0  0  0  0  0
    7.9750    1.7083    0.0000 C   0  0  0  0  0  0  0  0  0  0  0  0
   -0.0958    0.0958    0.0000 N   0  0  0  0  0  0  0  0  0  0  0  0
    7.9917   -1.4042    0.0000 C   0  0  0  0  0  0  0  0  0  0  0  0
   -1.6875    2.8125    0.0000 C   0  0  0  0  0  0  0  0  0  0  0  0
    5.2000    5.8667    0.0000 C   0  0  0  0  0  0  0  0  0  0  0  0
   -0.0958    5.5292    0.0000 S   0  0  0  0  0  0  0  0  0  0  0  0
   -4.8583    2.8125    0.0000 N   0  0  0  0  0  0  0  0  0  0  0  0
   10.5667   -3.2417    0.0000 C   0  0  0  0  0  0  0  0  0  0  0  0
  -11.2750    8.2125    0.0000 N   0  0  0  0  0  0  0  0  0  0  0  0
    2.6042    7.6792    0.0000 O   0  0  0  0  0  0  0  0  0  0  0  0
   -9.6167    5.5000    0.0000 C   0  0  0  0  0  0  0  0  0  0  0  0
    8.0625    7.2292    0.0000 O   0  0  0  0  0  0  0  0  0  0  0  0
   -6.4500    5.5167    0.0000 C   0  0  0  0  0  0  0  0  0  0  0  0
  -14.4375    8.1542    0.0000 C   0  0  0  0  0  0  0  0  0  0  0  0
   10.2500   -6.3792    0.0000 C   0  0  0  0  0  0  0  0  0  0  0  0
   13.4250   -1.9167    0.0000 C   0  0  0  0  0  0  0  0  0  0  0  0
  -11.1750    2.7708    0.0000 C   0  0  0  0  0  0  0  0  0  0  0  0
   10.6625    5.4042    0.0000 C   0  0  0  0  0  0  0  0  0  0  0  0
  -16.0000    5.4042    0.0000 C   0  0  0  0  0  0  0  0  0  0  0  0
   16.0000   -3.7375    0.0000 C   0  0  0  0  0  0  0  0  0  0  0  0
   12.8167   -8.2125    0.0000 C   0  0  0  0  0  0  0  0  0  0  0  0
  -14.3375    2.7125    0.0000 C   0  0  0  0  0  0  0  0  0  0  0  0
   15.7042   -6.9042    0.0000 C   0  0  0  0  0  0  0  0  0  0  0  0
  2  1  2  0  0  0  0
  3  1  1  0  0  0  0
  4  2  1  0  0  0  0
  5  1  1  0  0  0  0
  6  3  1  0  0  0  0
  7  5  1  0  0  0  0
  8  2  1  0  0  0  0
  9  7  2  0  0  0  0
 10  7  1  0  0  0  0
 11  6  1  0  0  0  0
 12 14  2  0  0  0  0
 13  8  2  0  0  0  0
 14 16  1  0  0  0  0
 15  8  1  0  0  0  0
 16 10  1  0  0  0  0
 17 12  1  0  0  0  0
 18 11  2  0  0  0  0
 19 11  1  0  0  0  0
 20 14  1  0  0  0  0
 21 15  1  0  0  0  0
 22 25  1  0  0  0  0
 23 19  2  0  0  0  0
 24 18  1  0  0  0  0
 25 20  2  0  0  0  0
 26 23  1  0  0  0  0
  6  4  2  0  0  0  0
 24 26  2  0  0  0  0
 22 17  2  0  0  0  0
M  END
> <#>
1443

> <PLATE>
LAT019

> <ROW>
C

> <COL>
2

> <COORD>
C02

> <LATID>
LAT019C02

> <Supplier>
Chembridge

> <Suplier_CAT#>
7822708

> <Name>
Novel

> <Concentration_(mM)>
2.5

> <IC50_(µM)>
28

> <Yeast_Active?>
-

> <Pubchem_CID>
1298213

$$$$
