
  -ISIS-  08130814242D

 24 26  0  0  0  0  0  0  0  0999 V2000
    2.0417    3.6458    0.0000 C   0  0  0  0  0  0  0  0  0  0  0  0
    2.4167    4.2792    0.0000 C   0  0  0  0  0  0  0  0  0  0  0  0
    1.2917    3.6458    0.0000 C   0  0  0  0  0  0  0  0  0  0  0  0
    0.9167    4.2792    0.0000 C   0  0  0  0  0  0  0  0  0  0  0  0
    0.1667    4.2792    0.0000 N   0  0  0  0  0  0  0  0  0  0  0  0
    2.0417    4.9292    0.0000 O   0  0  0  0  0  0  0  0  0  0  0  0
   -1.2208    5.6375    0.0000 N   0  0  0  0  0  0  0  0  0  0  0  0
    3.1667    4.2792    0.0000 C   0  0  0  0  0  0  0  0  0  0  0  0
    1.1792    4.7292    0.0000 O   0  0  0  0  0  0  0  0  0  0  0  0
   -0.0958    4.9792    0.0000 C   0  0  0  0  0  0  0  0  0  0  0  0
   -0.8458    4.9792    0.0000 C   0  0  0  0  0  0  0  0  0  0  0  0
    2.4167    2.9875    0.0000 C   0  0  0  0  0  0  0  0  0  0  0  0
    0.9167    2.9875    0.0000 C   0  0  0  0  0  0  0  0  0  0  0  0
   -1.9708    5.6375    0.0000 C   0  0  0  0  0  0  0  0  0  0  0  0
    3.5417    4.9292    0.0000 C   0  0  0  0  0  0  0  0  0  0  0  0
    3.5417    3.6458    0.0000 C   0  0  0  0  0  0  0  0  0  0  0  0
   -1.2208    4.3375    0.0000 C   0  0  0  0  0  0  0  0  0  0  0  0
    2.0417    2.3375    0.0000 C   0  0  0  0  0  0  0  0  0  0  0  0
    1.2917    2.3375    0.0000 C   0  0  0  0  0  0  0  0  0  0  0  0
   -2.3458    4.9792    0.0000 C   0  0  0  0  0  0  0  0  0  0  0  0
    4.2917    3.6458    0.0000 C   0  0  0  0  0  0  0  0  0  0  0  0
    4.2917    4.9292    0.0000 C   0  0  0  0  0  0  0  0  0  0  0  0
   -1.9708    4.3375    0.0000 C   0  0  0  0  0  0  0  0  0  0  0  0
    4.6667    4.2792    0.0000 C   0  0  0  0  0  0  0  0  0  0  0  0
  2  1  1  0  0  0  0
  3  1  2  0  0  0  0
  4  3  1  0  0  0  0
  5  4  1  0  0  0  0
  6  2  2  0  0  0  0
  7 11  2  0  0  0  0
  8  2  1  0  0  0  0
  9  4  2  0  0  0  0
 10  5  1  0  0  0  0
 11 10  1  0  0  0  0
 12  1  1  0  0  0  0
 13  3  1  0  0  0  0
 14  7  1  0  0  0  0
 15  8  1  0  0  0  0
 16  8  2  0  0  0  0
 17 11  1  0  0  0  0
 18 12  2  0  0  0  0
 19 18  1  0  0  0  0
 20 23  1  0  0  0  0
 21 16  1  0  0  0  0
 22 15  2  0  0  0  0
 23 17  2  0  0  0  0
 24 21  2  0  0  0  0
 19 13  2  0  0  0  0
 24 22  1  0  0  0  0
 20 14  2  0  0  0  0
M  END
> <#>
1486

> <PLATE>
LAT019

> <ROW>
F

> <COL>
7

> <COORD>
F07

> <LATID>
LAT019F07

> <Supplier>
Chembridge

> <Suplier_CAT#>
7961399

> <Name>
Novel

> <Concentration_(mM)>
2.5

> <IC50_(µM)>
inactive

> <Yeast_Active?>
-

> <Pubchem_CID>
847761

$$$$
