
  -ISIS-  08130814242D

 10 10  0  0  0  0  0  0  0  0999 V2000
   -2.6168    2.5156    0.0000 C   0  0  0  0  0  0  0  0  0  0  0  0
   -3.2506    2.5156    0.0000 C   0  0  0  0  0  0  0  0  0  0  0  0
   -3.5674    1.9668    0.0000 C   0  0  0  0  0  0  0  0  0  0  0  0
   -4.2012    1.9668    0.0000 C   0  0  0  0  0  0  0  0  0  0  0  0
   -4.5181    2.5156    0.0000 C   0  0  0  0  0  0  0  0  0  0  0  0
   -4.2012    3.0645    0.0000 C   0  0  0  0  0  0  0  0  0  0  0  0
   -3.5674    3.0645    0.0000 C   0  0  0  0  0  0  0  0  0  0  0  0
   -2.2999    1.9668    0.0000 O   0  0  0  0  0  0  0  0  0  0  0  0
   -2.2999    3.0645    0.0000 O   0  0  0  0  0  0  0  0  0  0  0  0
   -5.1518    2.5156    0.0000 N   0  0  0  0  0  0  0  0  0  0  0  0
  1  2  1  0  0  0  0
  2  3  1  0  0  0  0
  3  4  2  0  0  0  0
  4  5  1  0  0  0  0
  5  6  2  0  0  0  0
  6  7  1  0  0  0  0
  2  7  2  0  0  0  0
  1  8  2  0  0  0  0
  1  9  1  0  0  0  0
  5 10  1  0  0  0  0
M  END
> <#>
455

> <PLATE>
LAT006

> <ROW>
G

> <COL>
8

> <COORD>
G08

> <LATID>
LAT006G08

> <Supplier>
Sigma

> <Suplier_CAT#>
A-3659

> <Name>
P-Aminobenzoic Acid

> <Concentration_(mM)>
2.5

> <IC50_(µM)>
inactive

> <Yeast_Active?>
-

> <Pubchem_CID>
978

$$$$
