
  -ISIS-  08130814242D

 18 20  0  0  0  0  0  0  0  0999 V2000
   -0.4458    1.0208    0.0000 C   0  0  0  0  0  0  0  0  0  0  0  0
   -0.8708    1.5833    0.0000 N   0  0  3  0  0  0  0  0  0  0  0  0
    0.2875    1.0208    0.0000 C   0  0  0  0  0  0  0  0  0  0  0  0
   -0.6625    0.3500    0.0000 N   0  0  0  0  0  0  0  0  0  0  0  0
    0.7042    1.5958    0.0000 N   0  3  0  0  0  0  0  0  0  0  0  0
   -0.6500    2.2333    0.0000 C   0  0  0  0  0  0  0  0  0  0  0  0
    0.5042    0.3333    0.0000 C   0  0  0  0  0  0  0  0  0  0  0  0
   -0.0833   -0.0875    0.0000 N   0  0  0  0  0  0  0  0  0  0  0  0
   -1.2500    2.6708    0.0000 N   0  0  0  0  0  0  0  0  0  0  0  0
   -1.5833    1.5625    0.0000 C   0  0  0  0  0  0  0  0  0  0  0  0
   -1.8000    2.2500    0.0000 C   0  0  0  0  0  0  0  0  0  0  0  0
    1.4042    1.5000    0.0000 O   0  5  0  0  0  0  0  0  0  0  0  0
    0.4167    2.2333    0.0000 O   0  0  0  0  0  0  0  0  0  0  0  0
    1.1792    0.1125    0.0000 C   0  0  0  0  0  0  0  0  0  0  0  0
   -2.0500    1.0458    0.0000 C   0  0  0  0  0  0  0  0  0  0  0  0
   -2.5000    2.3958    0.0000 C   0  0  0  0  0  0  0  0  0  0  0  0
   -2.7500    1.1958    0.0000 C   0  0  0  0  0  0  0  0  0  0  0  0
   -2.9708    1.8625    0.0000 C   0  0  0  0  0  0  0  0  0  0  0  0
  2  1  1  0  0  0  0
  3  1  1  0  0  0  0
  4  1  2  0  0  0  0
  5  3  1  0  0  0  0
  6  2  1  0  0  0  0
  7  3  2  0  0  0  0
  8  4  1  0  0  0  0
  9  6  2  0  0  0  0
 10  2  1  0  0  0  0
 11 10  2  0  0  0  0
 12  5  1  0  0  0  0
 13  5  2  0  0  0  0
 14  7  1  0  0  0  0
 15 10  1  0  0  0  0
 16 11  1  0  0  0  0
 17 15  2  0  0  0  0
 18 17  1  0  0  0  0
  8  7  1  0  0  0  0
 11  9  1  0  0  0  0
 18 16  2  0  0  0  0
M  CHG  2   5   1  12  -1
M  END
> <#>
950

> <PLATE>
LAT012

> <ROW>
F

> <COL>
10

> <COORD>
F10

> <LATID>
LAT012F10

> <Supplier>
Chembridge

> <Suplier_CAT#>
5733741

> <Name>
Novel

> <Sec_Name>
235_G05

> <Concentration_(mM)>
2.5

> <IC50_(µM)>
4.5

> <Yeast_Active?>
-

> <Pubchem_CID>
NULL

> <Comment>
SS09

$$$$
