
  -ISIS-  08130814242D

 24 24  0  0  0  0  0  0  0  0999 V2000
    0.7042    0.9833    0.0000 N   0  0  0  0  0  0  0  0  0  0  0  0
   -0.9333    0.9833    0.0000 C   0  0  0  0  0  0  0  0  0  0  0  0
   -0.1000    0.5125    0.0000 N   0  0  0  0  0  0  0  0  0  0  0  0
    3.9167    1.0000    0.0000 N   0  0  0  0  0  0  0  0  0  0  0  0
   -0.9333    1.9125    0.0000 O   0  0  0  0  0  0  0  0  0  0  0  0
    1.5042    0.5125    0.0000 C   0  0  0  0  0  0  0  0  0  0  0  0
    2.3042    0.9833    0.0000 C   0  0  0  0  0  0  0  0  0  0  0  0
    3.1167    0.5333    0.0000 C   0  0  0  0  0  0  0  0  0  0  0  0
   -1.7333    0.5125    0.0000 C   0  0  0  0  0  0  0  0  0  0  0  0
    3.9167    1.9583    0.0000 C   0  0  0  0  0  0  0  0  0  0  0  0
    2.3042    1.9125    0.0000 C   0  0  0  0  0  0  0  0  0  0  0  0
   -2.5625    0.9833    0.0000 C   0  0  0  0  0  0  0  0  0  0  0  0
    3.1000    2.4000    0.0000 C   0  0  0  0  0  0  0  0  0  0  0  0
   -3.3958   -0.4042    0.0000 C   0  0  3  0  0  0  0  0  0  0  0  0
   -2.5833    0.0625    0.0000 C   0  0  3  0  0  0  0  0  0  0  0  0
   -3.3833   -1.3792    0.0000 O   0  0  0  0  0  0  0  0  0  0  0  0
   -4.2083    1.0000    0.0000 C   0  0  0  0  0  0  0  0  0  0  0  0
   -4.2083    0.0625    0.0000 C   0  0  0  0  0  0  0  0  0  0  0  0
   -2.5833    1.0000    0.0000 C   0  0  0  0  0  0  0  0  0  0  0  0
   -1.7125   -0.4042    0.0000 C   0  0  0  0  0  0  0  0  0  0  0  0
   -0.8708    0.0708    0.0000 C   0  0  0  0  0  0  0  0  0  0  0  0
    0.8292    0.0708    0.0000 C   0  0  0  0  0  0  0  0  0  0  0  0
   -0.0208   -0.4042    0.0000 C   0  0  0  0  0  0  0  0  0  0  0  0
    1.6667   -0.4042    0.0000 C   0  0  0  0  0  0  0  0  0  0  0  0
 11  7  1  0  0  0  0
 12  9  1  0  0  0  0
 13 11  2  0  0  0  0
  4 10  2  0  0  0  0
  2  3  1  0  0  0  0
  3  1  1  0  0  0  0
  4  8  1  0  0  0  0
  5  2  2  0  0  0  0
  6  1  2  0  0  0  0
  7  6  1  0  0  0  0
  8  7  2  0  0  0  0
  9  2  1  0  0  0  0
 10 13  1  0  0  0  0
 15 14  1  0  0  0  0
 16 14  1  0  0  0  0
 17 18  1  0  0  0  0
 18 14  1  0  0  0  0
 19 15  1  0  0  0  0
 20 15  1  0  0  0  0
 21 20  1  0  0  0  0
 22 23  1  0  0  0  0
 23 21  1  0  0  0  0
 24 22  1  0  0  0  0
 17 19  1  0  0  0  0
M  END
> <#>
1962

> <PLATE>
LAT025

> <ROW>
B

> <COL>
7

> <COORD>
B07

> <LATID>
LAT025B07

> <Supplier>
Chembridge

> <Suplier_CAT#>
5471546

> <Sec_Name>
135_G05

> <Concentration_(mM)>
2.5

> <IC50_(µM)>
inactive

> <Yeast_Active?>
-

> <Pubchem_CID>
NULL

$$$$
