
  -ISIS-  08130814242D

 20 22  0  0  0  0  0  0  0  0999 V2000
   -0.1708    0.3625    0.0000 C   0  0  0  0  0  0  0  0  0  0  0  0
   -0.1708   -1.1375    0.0000 C   0  0  0  0  0  0  0  0  0  0  0  0
   -1.4500    1.0833    0.0000 C   0  0  0  0  0  0  0  0  0  0  0  0
   -1.4500   -1.8542    0.0000 C   0  0  0  0  0  0  0  0  0  0  0  0
   -2.7125    0.3458    0.0000 C   0  0  0  0  0  0  0  0  0  0  0  0
   -2.7125   -1.1167    0.0000 C   0  0  0  0  0  0  0  0  0  0  0  0
    1.0875    1.0833    0.0000 C   0  0  0  0  0  0  0  0  0  0  0  0
   -1.4500    2.5458    0.0000 O   0  0  0  0  0  0  0  0  0  0  0  0
   -1.4500   -3.3167    0.0000 O   0  0  0  0  0  0  0  0  0  0  0  0
    1.1042   -1.9000    0.0000 O   0  0  0  0  0  0  0  0  0  0  0  0
    2.3667    0.3625    0.0000 C   0  0  0  0  0  0  0  0  0  0  0  0
    1.0875    2.5458    0.0000 C   0  0  0  0  0  0  0  0  0  0  0  0
    3.6292    2.5625    0.0000 C   0  0  0  0  0  0  0  0  0  0  0  0
    2.3500    3.2833    0.0000 C   0  0  0  0  0  0  0  0  0  0  0  0
    3.6292    1.1000    0.0000 C   0  0  0  0  0  0  0  0  0  0  0  0
    4.9042    3.3208    0.0000 Cl  0  0  0  0  0  0  0  0  0  0  0  0
   -3.9708    1.0833    0.0000 C   0  0  0  0  0  0  0  0  0  0  0  0
   -3.9708   -1.8542    0.0000 C   0  0  0  0  0  0  0  0  0  0  0  0
   -5.2333   -1.1375    0.0000 C   0  0  0  0  0  0  0  0  0  0  0  0
   -5.2333    0.3625    0.0000 C   0  0  0  0  0  0  0  0  0  0  0  0
  2  1  2  0  0  0  0
  3  1  1  0  0  0  0
  4  2  1  0  0  0  0
  5  3  1  0  0  0  0
  6  5  2  0  0  0  0
  7  1  1  0  0  0  0
  8  3  2  0  0  0  0
  9  4  2  0  0  0  0
 10  2  1  0  0  0  0
 11  7  2  0  0  0  0
 12  7  1  0  0  0  0
 13 14  1  0  0  0  0
 14 12  2  0  0  0  0
 15 11  1  0  0  0  0
 16 13  1  0  0  0  0
 17  5  1  0  0  0  0
 18  6  1  0  0  0  0
 19 20  1  0  0  0  0
 20 17  2  0  0  0  0
 15 13  2  0  0  0  0
  4  6  1  0  0  0  0
 19 18  2  0  0  0  0
M  END
> <#>
893

> <PLATE>
LAT012

> <ROW>
E

> <COL>
3

> <COORD>
E03

> <LATID>
LAT012E03

> <Supplier>
Chembridge

> <Suplier_CAT#>
5714516

> <Name>
Novel

> <Sec_Name>
226_B11

> <Concentration_(mM)>
2.5

> <IC50_(µM)>
67

> <Yeast_Active?>
-

> <Pubchem_CID>
NULL

$$$$
