
  -ISIS-  08130814242D

 34 38  0  0  0  0  0  0  0  0999 V2000
    0.6792    2.0958    0.0000 C   0  0  0  0  0  0  0  0  0  0  0  0
    0.6792    1.5333    0.0000 C   0  0  0  0  0  0  0  0  0  0  0  0
    1.2000    2.3958    0.0000 C   0  0  0  0  0  0  0  0  0  0  0  0
    0.1792    2.3958    0.0000 C   0  0  0  0  0  0  0  0  0  0  0  0
    0.1792    1.2333    0.0000 O   0  0  0  0  0  0  0  0  0  0  0  0
    1.7000    2.0958    0.0000 N   0  0  3  0  0  0  0  0  0  0  0  0
   -0.3458    2.1125    0.0000 C   0  0  0  0  0  0  0  0  0  0  0  0
    2.7167    1.5333    0.0000 N   0  0  3  0  0  0  0  0  0  0  0  0
   -0.3458    1.5125    0.0000 C   0  0  0  0  0  0  0  0  0  0  0  0
    3.2542    1.2500    0.0000 C   0  0  3  0  0  0  0  0  0  0  0  0
    1.2167    1.2500    0.0000 O   0  0  0  0  0  0  0  0  0  0  0  0
    1.2000    2.9708    0.0000 O   0  0  0  0  0  0  0  0  0  0  0  0
    2.2167    2.3958    0.0000 C   0  0  0  0  0  0  0  0  0  0  0  0
    1.7000    1.5125    0.0000 C   0  0  0  0  0  0  0  0  0  0  0  0
    2.7167    2.0958    0.0000 C   0  0  0  0  0  0  0  0  0  0  0  0
    2.2167    1.2333    0.0000 C   0  0  0  0  0  0  0  0  0  0  0  0
   -0.8625    2.3958    0.0000 C   0  0  0  0  0  0  0  0  0  0  0  0
   -0.8625    1.2333    0.0000 C   0  0  0  0  0  0  0  0  0  0  0  0
    3.2792    0.6708    0.0000 C   0  0  0  0  0  0  0  0  0  0  0  0
    3.7542    1.5458    0.0000 C   0  0  0  0  0  0  0  0  0  0  0  0
   -1.3625    2.0958    0.0000 C   0  0  0  0  0  0  0  0  0  0  0  0
   -1.3625    1.5333    0.0000 C   0  0  0  0  0  0  0  0  0  0  0  0
   -1.8833    2.3958    0.0000 O   0  0  0  0  0  0  0  0  0  0  0  0
    3.8000    0.3958    0.0000 C   0  0  0  0  0  0  0  0  0  0  0  0
    3.7542    2.1333    0.0000 C   0  0  0  0  0  0  0  0  0  0  0  0
    2.7792    0.3500    0.0000 C   0  0  0  0  0  0  0  0  0  0  0  0
    4.2542    1.2500    0.0000 C   0  0  0  0  0  0  0  0  0  0  0  0
   -2.3833    2.0708    0.0000 C   0  0  0  0  0  0  0  0  0  0  0  0
    3.8167   -0.2042    0.0000 C   0  0  0  0  0  0  0  0  0  0  0  0
    2.8000   -0.2292    0.0000 C   0  0  0  0  0  0  0  0  0  0  0  0
    4.7667    1.5458    0.0000 C   0  0  0  0  0  0  0  0  0  0  0  0
    4.2667    2.4125    0.0000 C   0  0  0  0  0  0  0  0  0  0  0  0
    4.7667    2.1208    0.0000 C   0  0  0  0  0  0  0  0  0  0  0  0
    3.3000   -0.5292    0.0000 C   0  0  0  0  0  0  0  0  0  0  0  0
  2  1  1  0  0  0  0
  3  1  1  0  0  0  0
  4  1  2  0  0  0  0
  5  2  1  0  0  0  0
  6  3  1  0  0  0  0
  7  4  1  0  0  0  0
  8 16  1  0  0  0  0
  9  7  2  0  0  0  0
 10  8  1  0  0  0  0
 11  2  2  0  0  0  0
 12  3  2  0  0  0  0
 13  6  1  0  0  0  0
 14  6  1  0  0  0  0
 15 13  1  0  0  0  0
 16 14  1  0  0  0  0
 17  7  1  0  0  0  0
 18  9  1  0  0  0  0
 19 10  1  0  0  0  0
 20 10  1  0  0  0  0
 21 17  2  0  0  0  0
 22 21  1  0  0  0  0
 23 21  1  0  0  0  0
 24 19  2  0  0  0  0
 25 20  2  0  0  0  0
 26 19  1  0  0  0  0
 27 20  1  0  0  0  0
 28 23  1  0  0  0  0
 29 24  1  0  0  0  0
 30 26  2  0  0  0  0
 31 27  2  0  0  0  0
 32 25  1  0  0  0  0
 33 31  1  0  0  0  0
 34 30  1  0  0  0  0
  5  9  1  0  0  0  0
  8 15  1  0  0  0  0
 18 22  2  0  0  0  0
 32 33  2  0  0  0  0
 34 29  2  0  0  0  0
M  END
> <#>
1027

> <PLATE>
LAT013

> <ROW>
C

> <COL>
10

> <COORD>
C10

> <LATID>
LAT013C10

> <Supplier>
Chembridge

> <Suplier_CAT#>
5655026

> <Name>
Novel

> <Sec_Name>
203_G11

> <Concentration_(mM)>
2.5

> <IC50_(µM)>
21

> <Yeast_Active?>
-

> <Pubchem_CID>
1354672

$$$$
