
  -ISIS-  08130814242D

 26 29  0  0  0  0  0  0  0  0999 V2000
   -1.3708   -1.8042    0.0000 C   0  0  0  0  0  0  0  0  0  0  0  0
   -1.8958   -2.5500    0.0000 N   0  0  0  0  0  0  0  0  0  0  0  0
   -0.4625   -1.8667    0.0000 C   0  0  0  0  0  0  0  0  0  0  0  0
   -1.8958   -1.1042    0.0000 S   0  0  0  0  0  0  0  0  0  0  0  0
   -2.7208   -2.2667    0.0000 C   0  0  0  0  0  0  0  0  0  0  0  0
   -2.7208   -1.3667    0.0000 C   0  0  0  0  0  0  0  0  0  0  0  0
    1.4167   -0.4042    0.0000 N   0  0  0  0  0  0  0  0  0  0  0  0
   -0.0500   -2.6667    0.0000 C   0  0  0  0  0  0  0  0  0  0  0  0
    2.9000    1.8333    0.0000 C   0  0  0  0  0  0  0  0  0  0  0  0
    0.0292   -1.1292    0.0000 C   0  0  0  0  0  0  0  0  0  0  0  0
    2.4875    2.6500    0.0000 C   0  0  0  0  0  0  0  0  0  0  0  0
    1.0167    0.4000    0.0000 C   0  0  0  0  0  0  0  0  0  0  0  0
    2.4000    1.0833    0.0000 C   0  0  0  0  0  0  0  0  0  0  0  0
    0.9292   -1.1792    0.0000 C   0  0  0  0  0  0  0  0  0  0  0  0
    0.8375   -2.7167    0.0000 C   0  0  0  0  0  0  0  0  0  0  0  0
    1.6000    2.6833    0.0000 C   0  0  0  0  0  0  0  0  0  0  0  0
    1.5042    1.1458    0.0000 C   0  0  0  0  0  0  0  0  0  0  0  0
    3.7875    1.7833    0.0000 O   0  0  0  0  0  0  0  0  0  0  0  0
    1.3292   -1.9875    0.0000 C   0  0  0  0  0  0  0  0  0  0  0  0
    1.1042    1.9458    0.0000 C   0  0  0  0  0  0  0  0  0  0  0  0
   -0.5708   -3.4042    0.0000 O   0  0  0  0  0  0  0  0  0  0  0  0
    2.9500    3.4208    0.0000 O   0  0  0  0  0  0  0  0  0  0  0  0
   -3.5000   -2.7167    0.0000 C   0  0  0  0  0  0  0  0  0  0  0  0
   -3.5000   -0.9292    0.0000 C   0  0  0  0  0  0  0  0  0  0  0  0
   -4.2958   -2.2667    0.0000 C   0  0  0  0  0  0  0  0  0  0  0  0
   -4.2958   -1.3667    0.0000 C   0  0  0  0  0  0  0  0  0  0  0  0
  2  1  2  0  0  0  0
  3  1  1  0  0  0  0
  4  1  1  0  0  0  0
  5  2  1  0  0  0  0
  6  4  1  0  0  0  0
  7 14  1  0  0  0  0
  8  3  1  0  0  0  0
  9 13  2  0  0  0  0
 10  3  2  0  0  0  0
 11 16  2  0  0  0  0
 12  7  2  0  0  0  0
 13 17  1  0  0  0  0
 14 10  1  0  0  0  0
 15  8  2  0  0  0  0
 16 20  1  0  0  0  0
 17 12  1  0  0  0  0
 18  9  1  0  0  0  0
 19 14  2  0  0  0  0
 20 17  2  0  0  0  0
 21  8  1  0  0  0  0
 22 11  1  0  0  0  0
 23  5  2  0  0  0  0
 24  6  2  0  0  0  0
 25 23  1  0  0  0  0
 26 24  1  0  0  0  0
  6  5  1  0  0  0  0
 26 25  2  0  0  0  0
 15 19  1  0  0  0  0
  9 11  1  0  0  0  0
M  END
> <#>
2069

> <PLATE>
LAT026

> <ROW>
E

> <COL>
10

> <COORD>
E10

> <LATID>
LAT026E10

> <Supplier>
Chembridge

> <Suplier_CAT#>
5655683

> <Sec_Name>
202_C09

> <Concentration_(mM)>
2.5

> <IC50_(µM)>
>100

> <Yeast_Active?>
+

> <Pubchem_CID>
NULL

$$$$
