
  -ISIS-  08130814242D

 20 21  0  0  0  0  0  0  0  0999 V2000
    7.2292   -1.6000    0.0000 N   0  3  0  0  0  0  0  0  0  0  0  0
    3.3167   -1.0250    0.0000 C   0  0  0  0  0  0  0  0  0  0  0  0
    6.4792   -1.6042    0.0000 C   0  0  0  0  0  0  0  0  0  0  0  0
    7.6042   -2.2500    0.0000 O   0  5  0  0  0  0  0  0  0  0  0  0
    4.1292   -1.6167    0.0000 N   0  0  0  0  0  0  0  0  0  0  0  0
    7.6000   -0.9500    0.0000 O   0  0  0  0  0  0  0  0  0  0  0  0
    2.6417   -1.3625    0.0000 N   0  0  0  0  0  0  0  0  0  0  0  0
    0.7167   -0.8792    0.0000 N   0  0  0  0  0  0  0  0  0  0  0  0
    3.3167   -0.0542    0.0000 O   0  0  0  0  0  0  0  0  0  0  0  0
    6.0542   -0.8875    0.0000 C   0  0  0  0  0  0  0  0  0  0  0  0
    6.0667   -2.3292    0.0000 C   0  0  0  0  0  0  0  0  0  0  0  0
    4.8167   -1.6167    0.0000 C   0  0  0  0  0  0  0  0  0  0  0  0
    1.3500   -1.2917    0.0000 C   0  0  0  0  0  0  0  0  0  0  0  0
    2.0167   -0.9542    0.0000 C   0  0  0  0  0  0  0  0  0  0  0  0
    5.2250   -0.8917    0.0000 C   0  0  0  0  0  0  0  0  0  0  0  0
    5.2292   -2.3292    0.0000 C   0  0  0  0  0  0  0  0  0  0  0  0
    0.0542   -1.2250    0.0000 C   0  0  0  0  0  0  0  0  0  0  0  0
    1.3042   -2.0417    0.0000 C   0  0  0  0  0  0  0  0  0  0  0  0
    0.0125   -1.9750    0.0000 C   0  0  0  0  0  0  0  0  0  0  0  0
    0.6417   -2.3792    0.0000 C   0  0  0  0  0  0  0  0  0  0  0  0
  2  5  1  0  0  0  0
  3  1  1  0  0  0  0
  4  1  1  0  0  0  0
  5 12  1  0  0  0  0
  6  1  2  0  0  0  0
  7  2  1  0  0  0  0
  8 13  1  0  0  0  0
  9  2  2  0  0  0  0
 10  3  2  0  0  0  0
 11  3  1  0  0  0  0
 12 16  1  0  0  0  0
 13 14  1  0  0  0  0
 14  7  1  0  0  0  0
 15 10  1  0  0  0  0
 16 11  2  0  0  0  0
 17  8  2  0  0  0  0
 18 13  2  0  0  0  0
 19 20  2  0  0  0  0
 20 18  1  0  0  0  0
 12 15  2  0  0  0  0
 19 17  1  0  0  0  0
M  CHG  2   1   1   4  -1
M  END
> <#>
1468

> <PLATE>
LAT019

> <ROW>
D

> <COL>
5

> <COORD>
D05

> <LATID>
LAT019D05

> <Supplier>
Chembridge

> <Suplier_CAT#>
7636342

> <Name>
Novel

> <Concentration_(mM)>
2.5

> <IC50_(µM)>
64

> <Yeast_Active?>
-

> <Pubchem_CID>
2944529

$$$$
