
  -ISIS-  08130814242D

 21 23  0  0  0  0  0  0  0  0999 V2000
    1.4667   -1.3292    0.0000 C   0  0  0  0  0  0  0  0  0  0  0  0
    0.7542   -0.9042    0.0000 N   0  0  0  0  0  0  0  0  0  0  0  0
    1.4667   -2.1500    0.0000 N   0  0  0  0  0  0  0  0  0  0  0  0
    4.3292   -1.3375    0.0000 C   0  0  0  0  0  0  0  0  0  0  0  0
    5.0292   -2.5875    0.0000 C   0  0  0  0  0  0  0  0  0  0  0  0
    5.7500   -2.1792    0.0000 C   0  0  0  0  0  0  0  0  0  0  0  0
    5.7542   -1.3542    0.0000 C   0  0  0  0  0  0  0  0  0  0  0  0
    4.3167   -2.1667    0.0000 C   0  0  0  0  0  0  0  0  0  0  0  0
    5.0375   -0.9375    0.0000 C   0  0  0  0  0  0  0  0  0  0  0  0
    2.9000   -1.3375    0.0000 N   0  0  0  0  0  0  0  0  0  0  0  0
    6.5375   -2.4375    0.0000 O   0  0  0  0  0  0  0  0  0  0  0  0
    6.5375   -1.1000    0.0000 O   0  0  0  0  0  0  0  0  0  0  0  0
    2.1875   -0.9167    0.0000 N   0  0  0  0  0  0  0  0  0  0  0  0
    0.0500   -1.3167    0.0000 C   0  0  0  0  0  0  0  0  0  0  0  0
    0.7500   -2.5542    0.0000 C   0  0  0  0  0  0  0  0  0  0  0  0
    7.0167   -1.7667    0.0000 C   0  0  0  0  0  0  0  0  0  0  0  0
    0.0375   -2.1375    0.0000 C   0  0  0  0  0  0  0  0  0  0  0  0
    3.6167   -0.9292    0.0000 C   0  0  0  0  0  0  0  0  0  0  0  0
    3.6000   -2.5792    0.0000 Br  0  0  0  0  0  0  0  0  0  0  0  0
    0.7500   -3.3875    0.0000 C   0  0  0  0  0  0  0  0  0  0  0  0
   -0.6500   -0.9000    0.0000 C   0  0  0  0  0  0  0  0  0  0  0  0
  2  1  2  0  0  0  0
  3  1  1  0  0  0  0
  4 18  1  0  0  0  0
  5  8  1  0  0  0  0
  6  7  1  0  0  0  0
  7  9  2  0  0  0  0
  8  4  2  0  0  0  0
  9  4  1  0  0  0  0
 10 13  1  0  0  0  0
 11  6  1  0  0  0  0
 12  7  1  0  0  0  0
 13  1  1  0  0  0  0
 14  2  1  0  0  0  0
 15  3  2  0  0  0  0
 16 12  1  0  0  0  0
 17 15  1  0  0  0  0
 18 10  2  0  0  0  0
 19  8  1  0  0  0  0
 20 15  1  0  0  0  0
 21 14  1  0  0  0  0
 17 14  2  0  0  0  0
  6  5  2  0  0  0  0
 16 11  1  0  0  0  0
M  END
> <#>
1810

> <PLATE>
LAT023

> <ROW>
B

> <COL>
8

> <COORD>
B08

> <LATID>
LAT023B08

> <Supplier>
Chembridge

> <Suplier_CAT#>
5633744

> <Name>
Novel

> <Sec_Name>
192_A11

> <Concentration_(mM)>
2.5

> <IC50_(µM)>
100

> <Yeast_Active?>
-

> <Pubchem_CID>
2857047

$$$$
