
  -ISIS-  08130814242D

 17 18  0  0  0  0  0  0  0  0999 V2000
   -2.9000    0.4625    0.0000 C   0  0  3  0  0  0  0  0  0  0  0  0
   -4.0000    0.3958    0.0000 C   0  0  3  0  0  0  0  0  0  0  0  0
   -3.6000    1.5125    0.0000 C   0  0  0  0  0  0  0  0  0  0  0  0
   -1.8833   -0.1292    0.0000 C   0  0  0  0  0  0  0  0  0  0  0  0
    0.1375   -0.0500    0.0000 N   0  0  0  0  0  0  0  0  0  0  0  0
   -4.3500   -0.6667    0.0000 Br  0  0  0  0  0  0  0  0  0  0  0  0
   -5.1333    0.1708    0.0000 Br  0  0  0  0  0  0  0  0  0  0  0  0
   -0.8625    0.5333    0.0000 N   0  0  0  0  0  0  0  0  0  0  0  0
   -1.8833   -1.2042    0.0000 O   0  0  0  0  0  0  0  0  0  0  0  0
    4.1500    0.0208    0.0000 N   0  0  0  0  0  0  0  0  0  0  0  0
   -1.9708    1.2458    0.0000 C   0  0  0  0  0  0  0  0  0  0  0  0
    1.1292    0.5333    0.0000 C   0  0  0  0  0  0  0  0  0  0  0  0
    2.1042   -0.0167    0.0000 C   0  0  0  0  0  0  0  0  0  0  0  0
    3.1042    0.5500    0.0000 C   0  0  0  0  0  0  0  0  0  0  0  0
    4.2375   -1.1542    0.0000 C   0  0  0  0  0  0  0  0  0  0  0  0
    2.1292   -1.2542    0.0000 C   0  0  0  0  0  0  0  0  0  0  0  0
    3.2042   -1.8000    0.0000 C   0  0  0  0  0  0  0  0  0  0  0  0
  2  1  1  0  0  0  0
  3  1  1  0  0  0  0
  4  1  1  0  0  0  0
  5  8  1  0  0  0  0
  6  2  1  0  0  0  0
  7  2  1  0  0  0  0
  8  4  1  0  0  0  0
  9  4  2  0  0  0  0
 10 14  2  0  0  0  0
 11  1  1  0  0  0  0
 12  5  2  0  0  0  0
 13 12  1  0  0  0  0
 14 13  1  0  0  0  0
 15 17  2  0  0  0  0
 16 13  2  0  0  0  0
 17 16  1  0  0  0  0
  3  2  1  0  0  0  0
 10 15  1  0  0  0  0
M  END
> <#>
1675

> <PLATE>
LAT021

> <ROW>
C

> <COL>
11

> <COORD>
C11

> <LATID>
LAT021C11

> <Supplier>
Chembridge

> <Suplier_CAT#>
6131107

> <Name>
Novel

> <Concentration_(mM)>
2.5

> <IC50_(µM)>
>100

> <Yeast_Active?>
-

> <Pubchem_CID>
2887229

$$$$
