
  -ISIS-  08130814242D

 20 21  0  0  0  0  0  0  0  0999 V2000
    1.8792   -1.9667    0.0000 C   0  0  0  0  0  0  0  0  0  0  0  0
    1.2292   -2.3500    0.0000 C   0  0  0  0  0  0  0  0  0  0  0  0
    2.5292   -2.3500    0.0000 N   0  0  0  0  0  0  0  0  0  0  0  0
    3.1792   -1.9667    0.0000 N   0  0  0  0  0  0  0  0  0  0  0  0
    4.4792   -1.9667    0.0000 C   0  0  0  0  0  0  0  0  0  0  0  0
    4.5542   -1.2292    0.0000 C   0  0  0  0  0  0  0  0  0  0  0  0
    3.8292   -2.3500    0.0000 C   0  0  0  0  0  0  0  0  0  0  0  0
    1.8792   -1.2167    0.0000 O   0  0  0  0  0  0  0  0  0  0  0  0
    0.5792   -3.4667    0.0000 N   0  0  0  0  0  0  0  0  0  0  0  0
    1.2292   -3.1000    0.0000 C   0  0  0  0  0  0  0  0  0  0  0  0
    5.2375   -0.9167    0.0000 C   0  0  0  0  0  0  0  0  0  0  0  0
    0.5792   -1.9667    0.0000 C   0  0  0  0  0  0  0  0  0  0  0  0
   -0.0625   -3.1000    0.0000 C   0  0  0  0  0  0  0  0  0  0  0  0
    3.8292   -3.1000    0.0000 C   0  0  0  0  0  0  0  0  0  0  0  0
    5.8500   -1.3542    0.0000 C   0  0  0  0  0  0  0  0  0  0  0  0
    5.3167   -0.1792    0.0000 C   0  0  0  0  0  0  0  0  0  0  0  0
   -0.0625   -2.3500    0.0000 C   0  0  0  0  0  0  0  0  0  0  0  0
    6.0042    0.1208    0.0000 C   0  0  0  0  0  0  0  0  0  0  0  0
    6.5375   -1.0542    0.0000 C   0  0  0  0  0  0  0  0  0  0  0  0
    6.6167   -0.3042    0.0000 C   0  0  0  0  0  0  0  0  0  0  0  0
  2  1  1  0  0  0  0
  3  1  1  0  0  0  0
  4  3  1  0  0  0  0
  5  7  1  0  0  0  0
  6  5  2  0  0  0  0
  7  4  2  0  0  0  0
  8  1  2  0  0  0  0
  9 10  1  0  0  0  0
 10  2  2  0  0  0  0
 11  6  1  0  0  0  0
 12  2  1  0  0  0  0
 13 17  1  0  0  0  0
 14  7  1  0  0  0  0
 15 11  1  0  0  0  0
 16 11  2  0  0  0  0
 17 12  2  0  0  0  0
 18 16  1  0  0  0  0
 19 15  2  0  0  0  0
 20 18  2  0  0  0  0
 13  9  2  0  0  0  0
 19 20  1  0  0  0  0
M  END
> <#>
2049

> <PLATE>
LAT026

> <ROW>
A

> <COL>
8

> <COORD>
A08

> <LATID>
LAT026A08

> <Supplier>
Chembridge

> <Suplier_CAT#>
5556757

> <Sec_Name>
166_E07

> <Concentration_(mM)>
2.5

> <IC50_(µM)>
>100

> <Yeast_Active?>
-

> <Pubchem_CID>
871888

$$$$
