
  -ISIS-  08130814242D

 20 22  0  0  0  0  0  0  0  0999 V2000
    3.2500   -0.1542    0.0000 N   0  3  0  0  0  0  0  0  0  0  0  0
   -1.7500    1.4958    0.0000 N   0  0  0  0  0  0  0  0  0  0  0  0
   -1.1708    0.7000    0.0000 C   0  0  0  0  0  0  0  0  0  0  0  0
   -1.7500   -0.1042    0.0000 N   0  0  0  0  0  0  0  0  0  0  0  0
   -2.6958    1.1958    0.0000 C   0  0  0  0  0  0  0  0  0  0  0  0
   -2.6958    0.1958    0.0000 C   0  0  0  0  0  0  0  0  0  0  0  0
    2.7792    0.7000    0.0000 C   0  0  0  0  0  0  0  0  0  0  0  0
   -0.1958    0.7000    0.0000 C   0  0  0  0  0  0  0  0  0  0  0  0
    2.8042   -1.0542    0.0000 O   0  5  0  0  0  0  0  0  0  0  0  0
    4.2375   -0.1542    0.0000 O   0  0  0  0  0  0  0  0  0  0  0  0
    0.3000    1.5458    0.0000 C   0  0  0  0  0  0  0  0  0  0  0  0
    1.8000    0.7000    0.0000 C   0  0  0  0  0  0  0  0  0  0  0  0
    1.3042    1.5458    0.0000 C   0  0  0  0  0  0  0  0  0  0  0  0
    3.2792    1.5833    0.0000 C   0  0  0  0  0  0  0  0  0  0  0  0
    2.7542    2.4208    0.0000 C   0  0  0  0  0  0  0  0  0  0  0  0
   -3.5333    1.6708    0.0000 C   0  0  0  0  0  0  0  0  0  0  0  0
   -3.5333   -0.3042    0.0000 C   0  0  0  0  0  0  0  0  0  0  0  0
    1.7792    2.4208    0.0000 C   0  0  0  0  0  0  0  0  0  0  0  0
   -4.3958    1.1958    0.0000 C   0  0  0  0  0  0  0  0  0  0  0  0
   -4.3958    0.1958    0.0000 C   0  0  0  0  0  0  0  0  0  0  0  0
  2  3  2  0  0  0  0
  3  8  1  0  0  0  0
  4  3  1  0  0  0  0
  5  2  1  0  0  0  0
  6  4  1  0  0  0  0
  7  1  1  0  0  0  0
  8 11  2  0  0  0  0
  9  1  1  0  0  0  0
 10  1  2  0  0  0  0
 11 13  1  0  0  0  0
 12  7  1  0  0  0  0
 13 12  2  0  0  0  0
 14  7  2  0  0  0  0
 15 14  1  0  0  0  0
 16  5  1  0  0  0  0
 17  6  1  0  0  0  0
 18 15  2  0  0  0  0
 19 16  2  0  0  0  0
 20 17  2  0  0  0  0
 13 18  1  0  0  0  0
  6  5  2  0  0  0  0
 20 19  1  0  0  0  0
M  CHG  2   1   1   9  -1
M  END
> <#>
1760

> <PLATE>
LAT022

> <ROW>
H

> <COL>
11

> <COORD>
H11

> <LATID>
LAT022H11

> <Supplier>
Chembridge

> <Suplier_CAT#>
5475042

> <Name>
Novel

> <Sec_Name>
138_F02

> <Concentration_(mM)>
2.5

> <IC50_(µM)>
14

> <Yeast_Active?>
-

> <Pubchem_CID>
NULL

$$$$
