
  -ISIS-  08130814242D

 16 17  0  0  0  0  0  0  0  0999 V2000
   -1.2708    1.8125    0.0000 N   0  0  3  0  0  0  0  0  0  0  0  0
   -2.6333    1.8125    0.0000 C   0  0  3  0  0  0  0  0  0  0  0  0
   -3.3125    2.2125    0.0000 C   0  0  0  0  0  0  0  0  0  0  0  0
   -1.9500    2.2083    0.0000 C   0  0  0  0  0  0  0  0  0  0  0  0
   -0.5958    2.2125    0.0000 C   0  0  3  0  0  0  0  0  0  0  0  0
   -3.3000    2.9958    0.0000 O   0  0  0  0  0  0  0  0  0  0  0  0
    0.0875    1.8125    0.0000 C   0  0  0  0  0  0  0  0  0  0  0  0
   -3.9958    1.8208    0.0000 N   0  0  0  0  0  0  0  0  0  0  0  0
   -1.2708    1.0208    0.0000 C   0  0  0  0  0  0  0  0  0  0  0  0
   -2.6333    1.0208    0.0000 C   0  0  0  0  0  0  0  0  0  0  0  0
    0.7667    2.2083    0.0000 C   0  0  3  0  0  0  0  0  0  0  0  0
   -1.9500    0.6208    0.0000 C   0  0  0  0  0  0  0  0  0  0  0  0
   -0.5958    2.9958    0.0000 C   0  0  0  0  0  0  0  0  0  0  0  0
    0.0875    3.3958    0.0000 C   0  0  0  0  0  0  0  0  0  0  0  0
    0.7667    2.9958    0.0000 C   0  0  0  0  0  0  0  0  0  0  0  0
    1.4500    1.8000    0.0000 C   0  0  0  0  0  0  0  0  0  0  0  0
  2  4  1  0  0  0  0
  3  2  1  0  0  0  0
  4  1  1  0  0  0  0
  5  1  1  0  0  0  0
  6  3  2  0  0  0  0
  7  5  1  0  0  0  0
  8  3  1  0  0  0  0
  9  1  1  0  0  0  0
 10 12  1  0  0  0  0
 11  7  1  0  0  0  0
 12  9  1  0  0  0  0
 13  5  1  0  0  0  0
 14 13  1  0  0  0  0
 15 14  1  0  0  0  0
 16 11  1  0  0  0  0
  2 10  1  0  0  0  0
 15 11  1  0  0  0  0
M  END
> <#>
1976

> <PLATE>
LAT025

> <ROW>
H

> <COL>
8

> <COORD>
H08

> <LATID>
LAT025H08

> <Supplier>
Chembridge

> <Suplier_CAT#>
5457325

> <Sec_Name>
126_G03

> <Concentration_(mM)>
2.5

> <IC50_(µM)>
inactive

> <Yeast_Active?>
-

> <Pubchem_CID>
2846405

$$$$
