
  -ISIS-  08130814242D

 23 26  0  0  0  0  0  0  0  0999 V2000
    1.0500    0.9208    0.0000 C   0  0  0  0  0  0  0  0  0  0  0  0
    1.4292    1.6000    0.0000 N   0  0  0  0  0  0  0  0  0  0  0  0
    1.4292    0.2458    0.0000 O   0  0  0  0  0  0  0  0  0  0  0  0
    2.2292    0.2458    0.0000 C   0  0  0  0  0  0  0  0  0  0  0  0
    2.6042    0.9208    0.0000 C   0  0  0  0  0  0  0  0  0  0  0  0
    2.2292    1.6000    0.0000 C   0  0  0  0  0  0  0  0  0  0  0  0
    0.2500    0.9208    0.0000 C   0  0  0  0  0  0  0  0  0  0  0  0
    2.6292   -0.4375    0.0000 O   0  0  0  0  0  0  0  0  0  0  0  0
   -1.3333    0.9208    0.0000 C   0  0  0  0  0  0  0  0  0  0  0  0
   -0.1500    0.2458    0.0000 C   0  0  0  0  0  0  0  0  0  0  0  0
   -0.1500    1.6000    0.0000 C   0  0  0  0  0  0  0  0  0  0  0  0
   -0.9333    1.6000    0.0000 C   0  0  0  0  0  0  0  0  0  0  0  0
   -0.9333    0.2458    0.0000 C   0  0  0  0  0  0  0  0  0  0  0  0
   -2.1125    0.9208    0.0000 C   0  0  0  0  0  0  0  0  0  0  0  0
    3.4042    0.9208    0.0000 C   0  0  0  0  0  0  0  0  0  0  0  0
    2.6042    2.2833    0.0000 C   0  0  0  0  0  0  0  0  0  0  0  0
   -2.5125    0.2458    0.0000 C   0  0  0  0  0  0  0  0  0  0  0  0
   -2.5125    1.6000    0.0000 C   0  0  0  0  0  0  0  0  0  0  0  0
    3.7875    1.6000    0.0000 C   0  0  0  0  0  0  0  0  0  0  0  0
    3.4042    2.2833    0.0000 C   0  0  0  0  0  0  0  0  0  0  0  0
   -3.2958    1.6000    0.0000 C   0  0  0  0  0  0  0  0  0  0  0  0
   -3.2958    0.2458    0.0000 C   0  0  0  0  0  0  0  0  0  0  0  0
   -3.6958    0.9208    0.0000 C   0  0  0  0  0  0  0  0  0  0  0  0
  2  1  2  0  0  0  0
  3  1  1  0  0  0  0
  4  3  1  0  0  0  0
  5  4  1  0  0  0  0
  6  2  1  0  0  0  0
  7  1  1  0  0  0  0
  8  4  2  0  0  0  0
  9 12  1  0  0  0  0
 10  7  2  0  0  0  0
 11  7  1  0  0  0  0
 12 11  2  0  0  0  0
 13 10  1  0  0  0  0
 14  9  1  0  0  0  0
 15  5  2  0  0  0  0
 16  6  2  0  0  0  0
 17 14  1  0  0  0  0
 18 14  2  0  0  0  0
 19 15  1  0  0  0  0
 20 16  1  0  0  0  0
 21 18  1  0  0  0  0
 22 17  2  0  0  0  0
 23 21  2  0  0  0  0
  6  5  1  0  0  0  0
  9 13  2  0  0  0  0
 20 19  2  0  0  0  0
 22 23  1  0  0  0  0
M  END
> <#>
546

> <PLATE>
LAT007

> <ROW>
B

> <COL>
10

> <COORD>
B10

> <LATID>
LAT007B10

> <Supplier>
Chembridge

> <Suplier_CAT#>
5471350

> <Name>
Novel

> <Sec_Name>
134_C09

> <Concentration_(mM)>
2.5

> <IC50_(µM)>
>100

> <Yeast_Active?>
-

> <Pubchem_CID>
853653

$$$$
