
  -ISIS-  08130814242D

 19 19  0  0  0  0  0  0  0  0999 V2000
   -2.9458    0.6125    0.0000 C   0  0  0  0  0  0  0  0  0  0  0  0
   -2.9458   -0.3292    0.0000 C   0  0  0  0  0  0  0  0  0  0  0  0
   -3.7500   -0.8000    0.0000 C   0  0  0  0  0  0  0  0  0  0  0  0
   -2.0958    1.0958    0.0000 C   0  0  0  0  0  0  0  0  0  0  0  0
   -4.5625   -0.3292    0.0000 C   0  0  0  0  0  0  0  0  0  0  0  0
   -0.3708    1.1333    0.0000 N   0  0  0  0  0  0  0  0  0  0  0  0
   -1.1958    0.6458    0.0000 C   0  0  0  0  0  0  0  0  0  0  0  0
   -3.7500    1.0833    0.0000 C   0  0  0  0  0  0  0  0  0  0  0  0
   -2.0708    1.8208    0.0000 O   0  0  0  0  0  0  0  0  0  0  0  0
   -4.5625    0.6125    0.0000 C   0  0  0  0  0  0  0  0  0  0  0  0
   -3.7625   -1.3292    0.0000 O   0  0  0  0  0  0  0  0  0  0  0  0
   -5.1125   -0.6792    0.0000 O   0  0  0  0  0  0  0  0  0  0  0  0
    0.3875    0.5958    0.0000 C   0  0  3  0  0  0  0  0  0  0  0  0
    1.1667    1.0958    0.0000 C   0  0  0  0  0  0  0  0  0  0  0  0
    0.4167   -0.3375    0.0000 C   0  0  0  0  0  0  0  0  0  0  0  0
    1.2542   -0.7667    0.0000 C   0  0  0  0  0  0  0  0  0  0  0  0
    2.0000    0.6625    0.0000 C   0  0  0  0  0  0  0  0  0  0  0  0
    2.0500   -0.2542    0.0000 C   0  0  0  0  0  0  0  0  0  0  0  0
   -0.2333    1.5208    0.0000 Cl  0  0  0  0  0  0  0  0  0  0  0  0
  2  1  2  0  0  0  0
  3  2  1  0  0  0  0
  4  1  1  0  0  0  0
  5 10  1  0  0  0  0
  6  7  1  0  0  0  0
  7  4  1  0  0  0  0
  8  1  1  0  0  0  0
  9  4  2  0  0  0  0
 10  8  2  0  0  0  0
 11  3  1  0  0  0  0
 12  5  1  0  0  0  0
 13  6  1  0  0  0  0
 14 13  1  0  0  0  0
 15 13  1  0  0  0  0
 16 15  1  0  0  0  0
 17 14  1  0  0  0  0
 18 16  1  0  0  0  0
  3  5  2  0  0  0  0
 17 18  1  0  0  0  0
M  END
> <#>
1118

> <PLATE>
LAT014

> <ROW>
F

> <COL>
11

> <COORD>
F11

> <LATID>
LAT014F11

> <Supplier>
Chembridge

> <Suplier_CAT#>
5317936

> <Name>
Novel

> <Concentration_(mM)>
2.5

> <IC50_(µM)>
>100

> <Yeast_Active?>
-

> <Pubchem_CID>
27715

$$$$
