
  -ISIS-  08130814242D

 23 24  0  0  0  0  0  0  0  0999 V2000
    6.0625   -3.3292    0.0000 N   0  3  0  0  0  0  0  0  0  0  0  0
    2.4875   -2.1042    0.0000 C   0  0  0  0  0  0  0  0  0  0  0  0
    6.0667   -2.5042    0.0000 C   0  0  0  0  0  0  0  0  0  0  0  0
    2.4875   -1.2667    0.0000 C   0  0  0  0  0  0  0  0  0  0  0  0
    1.7667   -2.5167    0.0000 C   0  0  0  0  0  0  0  0  0  0  0  0
    1.7667   -0.8542    0.0000 C   0  0  0  0  0  0  0  0  0  0  0  0
    1.0542   -1.2750    0.0000 C   0  0  0  0  0  0  0  0  0  0  0  0
    3.2042   -2.5167    0.0000 C   0  0  0  0  0  0  0  0  0  0  0  0
    1.0542   -2.1042    0.0000 C   0  0  0  0  0  0  0  0  0  0  0  0
    5.3500   -3.7292    0.0000 O   0  5  0  0  0  0  0  0  0  0  0  0
    5.3542   -2.0917    0.0000 C   0  0  0  0  0  0  0  0  0  0  0  0
    6.7667   -3.7417    0.0000 O   0  0  0  0  0  0  0  0  0  0  0  0
    4.6375   -2.5125    0.0000 O   0  0  0  0  0  0  0  0  0  0  0  0
    3.9167   -2.1000    0.0000 C   0  0  0  0  0  0  0  0  0  0  0  0
    3.2000   -3.3417    0.0000 O   0  0  0  0  0  0  0  0  0  0  0  0
    3.2042   -0.8500    0.0000 O   0  0  0  0  0  0  0  0  0  0  0  0
    0.3292   -0.8542    0.0000 O   0  0  0  0  0  0  0  0  0  0  0  0
    6.7792   -2.0917    0.0000 C   0  0  0  0  0  0  0  0  0  0  0  0
    0.3375   -2.5125    0.0000 C   0  0  0  0  0  0  0  0  0  0  0  0
    5.3542   -1.2667    0.0000 C   0  0  0  0  0  0  0  0  0  0  0  0
    6.7792   -1.2667    0.0000 C   0  0  0  0  0  0  0  0  0  0  0  0
    0.3292   -3.3375    0.0000 C   0  0  0  0  0  0  0  0  0  0  0  0
    6.0625   -0.8542    0.0000 C   0  0  0  0  0  0  0  0  0  0  0  0
  2  8  1  0  0  0  0
  3  1  1  0  0  0  0
  4  2  1  0  0  0  0
  5  2  2  0  0  0  0
  6  4  2  0  0  0  0
  7  9  2  0  0  0  0
  8 14  1  0  0  0  0
  9  5  1  0  0  0  0
 10  1  1  0  0  0  0
 11  3  2  0  0  0  0
 12  1  2  0  0  0  0
 13 11  1  0  0  0  0
 14 13  1  0  0  0  0
 15  8  2  0  0  0  0
 16  4  1  0  0  0  0
 17  7  1  0  0  0  0
 18  3  1  0  0  0  0
 19  9  1  0  0  0  0
 20 11  1  0  0  0  0
 21 18  2  0  0  0  0
 22 19  1  0  0  0  0
 23 21  1  0  0  0  0
 20 23  2  0  0  0  0
  7  6  1  0  0  0  0
M  CHG  2   1   1  10  -1
M  END
> <#>
1361

> <PLATE>
LAT018

> <ROW>
A

> <COL>
2

> <COORD>
A02

> <LATID>
LAT018A02

> <Supplier>
Chembridge

> <Suplier_CAT#>
7674922

> <Name>
Novel

> <Concentration_(mM)>
2.5

> <IC50_(µM)>
>100

> <Yeast_Active?>
-

> <Pubchem_CID>
960573

$$$$
