
  -ISIS-  08130814242D

 23 24  0  0  0  0  0  0  0  0999 V2000
    7.9792   -0.8292    0.0000 N   0  3  0  0  0  0  0  0  0  0  0  0
    2.9792   -2.0792    0.0000 C   0  0  0  0  0  0  0  0  0  0  0  0
    2.9792   -1.2417    0.0000 C   0  0  0  0  0  0  0  0  0  0  0  0
    2.2542   -2.4917    0.0000 C   0  0  0  0  0  0  0  0  0  0  0  0
    2.2542   -0.8292    0.0000 C   0  0  0  0  0  0  0  0  0  0  0  0
    1.5417   -1.2500    0.0000 C   0  0  0  0  0  0  0  0  0  0  0  0
    3.6917   -2.4917    0.0000 C   0  0  0  0  0  0  0  0  0  0  0  0
    1.5417   -2.0792    0.0000 C   0  0  0  0  0  0  0  0  0  0  0  0
    7.2667   -1.2417    0.0000 C   0  0  0  0  0  0  0  0  0  0  0  0
    8.7000   -1.2292    0.0000 O   0  5  0  0  0  0  0  0  0  0  0  0
    7.9750    0.0000    0.0000 O   0  0  0  0  0  0  0  0  0  0  0  0
    4.4125   -2.0750    0.0000 C   0  0  0  0  0  0  0  0  0  0  0  0
    3.6917   -3.3167    0.0000 O   0  0  0  0  0  0  0  0  0  0  0  0
    7.2667   -2.0667    0.0000 C   0  0  0  0  0  0  0  0  0  0  0  0
    6.5542   -0.8292    0.0000 C   0  0  0  0  0  0  0  0  0  0  0  0
    5.1292   -2.4875    0.0000 O   0  0  0  0  0  0  0  0  0  0  0  0
    3.6917   -0.8250    0.0000 O   0  0  0  0  0  0  0  0  0  0  0  0
    5.8417   -2.0667    0.0000 C   0  0  0  0  0  0  0  0  0  0  0  0
    0.8250   -0.8292    0.0000 O   0  0  0  0  0  0  0  0  0  0  0  0
    5.8417   -1.2417    0.0000 C   0  0  0  0  0  0  0  0  0  0  0  0
    6.5542   -2.4792    0.0000 C   0  0  0  0  0  0  0  0  0  0  0  0
    0.8292   -2.4875    0.0000 C   0  0  0  0  0  0  0  0  0  0  0  0
    0.8250   -3.3125    0.0000 C   0  0  0  0  0  0  0  0  0  0  0  0
  2  7  1  0  0  0  0
  3  2  1  0  0  0  0
  4  2  2  0  0  0  0
  5  3  2  0  0  0  0
  6  8  2  0  0  0  0
  7 12  1  0  0  0  0
  8  4  1  0  0  0  0
  9  1  1  0  0  0  0
 10  1  1  0  0  0  0
 11  1  2  0  0  0  0
 12 16  1  0  0  0  0
 13  7  2  0  0  0  0
 14  9  2  0  0  0  0
 15  9  1  0  0  0  0
 16 18  1  0  0  0  0
 17  3  1  0  0  0  0
 18 20  1  0  0  0  0
 19  6  1  0  0  0  0
 20 15  2  0  0  0  0
 21 14  1  0  0  0  0
 22  8  1  0  0  0  0
 23 22  1  0  0  0  0
 21 18  2  0  0  0  0
  6  5  1  0  0  0  0
M  CHG  2   1   1  10  -1
M  END
> <#>
1359

> <PLATE>
LAT017

> <ROW>
G

> <COL>
11

> <COORD>
G11

> <LATID>
LAT017G11

> <Supplier>
Chembridge

> <Suplier_CAT#>
7660297

> <Name>
Novel

> <Concentration_(mM)>
2.5

> <IC50_(µM)>
inactive

> <Yeast_Active?>
-

> <Pubchem_CID>
960567

$$$$
