
  -ISIS-  08130814242D

 20 21  0  0  0  0  0  0  0  0999 V2000
    1.8792    0.4625    0.0000 C   0  0  0  0  0  0  0  0  0  0  0  0
    3.1875    0.1333    0.0000 C   0  0  0  0  0  0  0  0  0  0  0  0
    1.5375    1.8125    0.0000 C   0  0  0  0  0  0  0  0  0  0  0  0
    3.5542   -1.1875    0.0000 C   0  0  0  0  0  0  0  0  0  0  0  0
    2.5792   -2.1375    0.0000 C   0  0  0  0  0  0  0  0  0  0  0  0
    0.9292   -0.4875    0.0000 C   0  0  0  0  0  0  0  0  0  0  0  0
   -0.7333    1.2208    0.0000 N   0  0  0  0  0  0  0  0  0  0  0  0
    1.2667   -1.8042    0.0000 C   0  0  0  0  0  0  0  0  0  0  0  0
    0.2167    2.1708    0.0000 N   0  0  0  0  0  0  0  0  0  0  0  0
    2.5042    2.7708    0.0000 O   0  0  0  0  0  0  0  0  0  0  0  0
   -3.6000   -1.6542    0.0000 N   0  0  0  0  0  0  0  0  0  0  0  0
   -2.0458    1.5500    0.0000 C   0  0  0  0  0  0  0  0  0  0  0  0
   -2.9958    0.6000    0.0000 C   0  0  0  0  0  0  0  0  0  0  0  0
    4.8667   -1.5167    0.0000 Br  0  0  0  0  0  0  0  0  0  0  0  0
    4.1667    1.0833    0.0000 O   0  0  0  0  0  0  0  0  0  0  0  0
    0.2875   -2.7542    0.0000 Br  0  0  0  0  0  0  0  0  0  0  0  0
   -2.6500   -0.7042    0.0000 C   0  0  0  0  0  0  0  0  0  0  0  0
   -4.9208   -1.3000    0.0000 C   0  0  0  0  0  0  0  0  0  0  0  0
   -4.3125    0.9708    0.0000 C   0  0  0  0  0  0  0  0  0  0  0  0
   -5.2708   -0.0167    0.0000 C   0  0  0  0  0  0  0  0  0  0  0  0
  2  1  1  0  0  0  0
  3  1  1  0  0  0  0
  4  2  2  0  0  0  0
  5  8  2  0  0  0  0
  6  1  2  0  0  0  0
  7  9  1  0  0  0  0
  8  6  1  0  0  0  0
  9  3  1  0  0  0  0
 10  3  2  0  0  0  0
 11 17  1  0  0  0  0
 12  7  2  0  0  0  0
 13 12  1  0  0  0  0
 14  4  1  0  0  0  0
 15  2  1  0  0  0  0
 16  8  1  0  0  0  0
 17 13  2  0  0  0  0
 18 20  1  0  0  0  0
 19 13  1  0  0  0  0
 20 19  2  0  0  0  0
  5  4  1  0  0  0  0
 11 18  2  0  0  0  0
M  END
> <#>
1599

> <PLATE>
LAT020

> <ROW>
G

> <COL>
11

> <COORD>
G11

> <LATID>
LAT020G11

> <Supplier>
Chembridge

> <Suplier_CAT#>
5286143

> <Name>
Novel

> <Concentration_(mM)>
2.5

> <IC50_(µM)>
100

> <Yeast_Active?>
-

> <Pubchem_CID>
1377805

$$$$
