
  -ISIS-  08130814242D

 33 36  0  0  0  0  0  0  0  0999 V2000
   -2.1625    0.2000    0.0000 N   0  0  3  0  0  0  0  0  0  0  0  0
   -2.1625    0.7625    0.0000 C   0  0  0  0  0  0  0  0  0  0  0  0
   -1.6833   -0.0792    0.0000 C   0  0  0  0  0  0  0  0  0  0  0  0
   -1.1958    0.2000    0.0000 C   0  0  3  0  0  0  0  0  0  0  0  0
   -1.1958    0.7625    0.0000 C   0  0  0  0  0  0  0  0  0  0  0  0
   -0.0625    0.2000    0.0000 C   0  0  0  0  0  0  0  0  0  0  0  0
   -0.6125   -0.0917    0.0000 S   0  0  0  0  0  0  0  0  0  0  0  0
   -0.0625    0.8500    0.0000 N   0  0  0  0  0  0  0  0  0  0  0  0
   -2.7208   -0.0917    0.0000 C   0  0  0  0  0  0  0  0  0  0  0  0
   -2.7208    1.0833    0.0000 O   0  0  0  0  0  0  0  0  0  0  0  0
    0.4875   -0.0917    0.0000 N   0  0  0  0  0  0  0  0  0  0  0  0
   -1.6833   -0.7292    0.0000 O   0  0  0  0  0  0  0  0  0  0  0  0
   -3.3000    0.2208    0.0000 C   0  0  0  0  0  0  0  0  0  0  0  0
   -2.7208   -0.7542    0.0000 C   0  0  0  0  0  0  0  0  0  0  0  0
    0.5000    1.1708    0.0000 C   0  0  0  0  0  0  0  0  0  0  0  0
    1.0500    0.2208    0.0000 C   0  0  0  0  0  0  0  0  0  0  0  0
   -3.8625   -0.7542    0.0000 C   0  0  0  0  0  0  0  0  0  0  0  0
    1.6167   -0.0792    0.0000 C   0  0  0  0  0  0  0  0  0  0  0  0
    2.7375   -0.7375    0.0000 C   0  0  0  0  0  0  0  0  0  0  0  0
   -3.3000   -1.0792    0.0000 C   0  0  0  0  0  0  0  0  0  0  0  0
   -3.8625   -0.0917    0.0000 C   0  0  0  0  0  0  0  0  0  0  0  0
   -4.4125   -1.0875    0.0000 F   0  0  0  0  0  0  0  0  0  0  0  0
    2.1792    0.2500    0.0000 C   0  0  0  0  0  0  0  0  0  0  0  0
    1.6167   -0.7375    0.0000 C   0  0  0  0  0  0  0  0  0  0  0  0
    2.7375   -0.0792    0.0000 C   0  0  0  0  0  0  0  0  0  0  0  0
    2.1792   -1.0667    0.0000 C   0  0  0  0  0  0  0  0  0  0  0  0
    3.2875   -1.0542    0.0000 O   0  0  0  0  0  0  0  0  0  0  0  0
    0.5000    1.8000    0.0000 C   0  0  0  0  0  0  0  0  0  0  0  0
    1.0542    0.8458    0.0000 C   0  0  0  0  0  0  0  0  0  0  0  0
    3.8375   -0.7500    0.0000 C   0  0  0  0  0  0  0  0  0  0  0  0
    1.6167    1.1708    0.0000 C   0  0  0  0  0  0  0  0  0  0  0  0
    1.0542    2.1333    0.0000 C   0  0  0  0  0  0  0  0  0  0  0  0
    1.6167    1.8000    0.0000 C   0  0  0  0  0  0  0  0  0  0  0  0
  2  1  1  0  0  0  0
  3  1  1  0  0  0  0
  4  3  1  0  0  0  0
  5  2  1  0  0  0  0
  6  7  1  0  0  0  0
  7  4  1  0  0  0  0
  8  6  2  0  0  0  0
  9  1  1  0  0  0  0
 10  2  2  0  0  0  0
 11  6  1  0  0  0  0
 12  3  2  0  0  0  0
 13  9  1  0  0  0  0
 14  9  2  0  0  0  0
 15  8  1  0  0  0  0
 16 11  1  0  0  0  0
 17 20  2  0  0  0  0
 18 16  1  0  0  0  0
 19 26  1  0  0  0  0
 20 14  1  0  0  0  0
 21 13  2  0  0  0  0
 22 17  1  0  0  0  0
 23 18  2  0  0  0  0
 24 18  1  0  0  0  0
 25 23  1  0  0  0  0
 26 24  2  0  0  0  0
 27 19  1  0  0  0  0
 28 15  1  0  0  0  0
 29 15  2  0  0  0  0
 30 27  1  0  0  0  0
 31 29  1  0  0  0  0
 32 28  2  0  0  0  0
 33 31  2  0  0  0  0
  4  5  1  0  0  0  0
 17 21  1  0  0  0  0
 19 25  2  0  0  0  0
 33 32  1  0  0  0  0
M  END
> <#>
1014

> <PLATE>
LAT013

> <ROW>
F

> <COL>
8

> <COORD>
F08

> <LATID>
LAT013F08

> <Supplier>
Chembridge

> <Suplier_CAT#>
5754373

> <Name>
Novel

> <Sec_Name>
239_D09

> <Concentration_(mM)>
2.5

> <IC50_(µM)>
inactive

> <Yeast_Active?>
-

> <Pubchem_CID>
NULL

$$$$
