
  -ISIS-  08130814242D

 21 24  0  0  0  0  0  0  0  0999 V2000
    7.6042   -2.8042    0.0000 C   0  0  2  0  0  0  0  0  0  0  0  0
    7.6042   -3.6292    0.0000 C   0  0  3  0  0  0  0  0  0  0  0  0
    6.8917   -4.0542    0.0000 C   0  0  3  0  0  0  0  0  0  0  0  0
    6.1667   -3.6292    0.0000 C   0  0  3  0  0  0  0  0  0  0  0  0
    5.4542   -4.0542    0.0000 C   0  0  0  0  0  0  0  0  0  0  0  0
    5.4542   -4.8792    0.0000 C   0  0  0  0  0  0  0  0  0  0  0  0
    6.8875   -2.3917    0.0000 C   0  0  0  0  0  0  0  0  0  0  0  0
    6.1667   -2.8042    0.0000 C   0  0  0  0  0  0  0  0  0  0  0  0
    6.8917   -4.8792    0.0000 C   0  0  0  0  0  0  0  0  0  0  0  0
    8.4000   -3.8917    0.0000 C   0  0  0  0  0  0  0  0  0  0  0  0
    4.7417   -3.6292    0.0000 C   0  0  0  0  0  0  0  0  0  0  0  0
    8.4000   -2.5542    0.0000 C   0  0  2  0  0  0  0  0  0  0  0  0
    6.1667   -5.2917    0.0000 C   0  0  0  0  0  0  0  0  0  0  0  0
    4.7417   -5.2917    0.0000 C   0  0  0  0  0  0  0  0  0  0  0  0
    8.8792   -3.2042    0.0000 C   0  0  0  0  0  0  0  0  0  0  0  0
    4.0167   -4.8792    0.0000 C   0  0  0  0  0  0  0  0  0  0  0  0
    4.0167   -4.0542    0.0000 C   0  0  0  0  0  0  0  0  0  0  0  0
    7.6042   -2.0292    0.0000 C   0  0  0  0  0  0  0  0  0  0  0  0
    8.5792   -1.7417    0.0000 O   0  0  0  0  0  0  0  0  0  0  0  0
    3.3000   -5.2917    0.0000 O   0  0  0  0  0  0  0  0  0  0  0  0
    2.5875   -4.8917    0.0000 C   0  0  0  0  0  0  0  0  0  0  0  0
  2  1  1  0  0  0  0
  3  2  1  0  0  0  0
  4  8  1  0  0  0  0
  5  4  1  0  0  0  0
  6  5  2  0  0  0  0
  7  1  1  0  0  0  0
  8  7  1  0  0  0  0
  9  3  1  0  0  0  0
 10  2  1  0  0  0  0
 11  5  1  0  0  0  0
 12  1  1  0  0  0  0
 13  9  1  0  0  0  0
 14  6  1  0  0  0  0
 15 12  1  0  0  0  0
 16 17  1  0  0  0  0
 17 11  2  0  0  0  0
  1 18  1  1  0  0  0
 12 19  1  1  0  0  0
 20 16  1  0  0  0  0
 21 20  1  0  0  0  0
 10 15  1  0  0  0  0
  4  3  1  0  0  0  0
  6 13  1  0  0  0  0
 14 16  2  0  0  0  0
M  END
> <#>
153

> <PLATE>
LAT002

> <ROW>
A

> <COL>
11

> <COORD>
A11

> <LATID>
LAT002A11

> <Supplier>
Microsource

> <Suplier_CAT#>
01501183

> <Name>
Estradiol Methyl Ether

> <Concentration_(mM)>
2.5

> <IC50_(µM)>
55

> <Yeast_Active?>
-

> <Pubchem_CID>
13948

> <Description>
Estrogen

$$$$
