
  -ISIS-  08130814242D

 20 21  0  0  0  0  0  0  0  0999 V2000
   -1.9208    1.4458    0.0000 C   0  0  0  0  0  0  0  0  0  0  0  0
   -2.7208    1.9000    0.0000 C   0  0  0  0  0  0  0  0  0  0  0  0
   -1.9208    0.5208    0.0000 C   0  0  0  0  0  0  0  0  0  0  0  0
   -3.5208    1.4458    0.0000 C   0  0  0  0  0  0  0  0  0  0  0  0
   -3.5208    0.5208    0.0000 C   0  0  0  0  0  0  0  0  0  0  0  0
   -1.1208    1.9208    0.0000 C   0  0  0  0  0  0  0  0  0  0  0  0
   -2.7208    0.0625    0.0000 C   0  0  0  0  0  0  0  0  0  0  0  0
   -0.3208    1.4625    0.0000 C   0  0  0  0  0  0  0  0  0  0  0  0
   -1.1208    2.8458    0.0000 O   0  0  0  0  0  0  0  0  0  0  0  0
    0.4500    1.9208    0.0000 O   0  0  0  0  0  0  0  0  0  0  0  0
   -2.7208    2.8208    0.0000 O   0  0  0  0  0  0  0  0  0  0  0  0
   -4.3458    0.0625    0.0000 O   0  0  0  0  0  0  0  0  0  0  0  0
    1.2500    1.4625    0.0000 C   0  0  0  0  0  0  0  0  0  0  0  0
   -2.7000   -0.8500    0.0000 C   0  0  0  0  0  0  0  0  0  0  0  0
    1.2500    0.5458    0.0000 C   0  0  0  0  0  0  0  0  0  0  0  0
    2.0500    1.9208    0.0000 C   0  0  0  0  0  0  0  0  0  0  0  0
   -3.4833   -1.3042    0.0000 C   0  0  0  0  0  0  0  0  0  0  0  0
    2.8500    1.4625    0.0000 C   0  0  0  0  0  0  0  0  0  0  0  0
    2.0500    0.0833    0.0000 C   0  0  0  0  0  0  0  0  0  0  0  0
    2.8500    0.5458    0.0000 C   0  0  0  0  0  0  0  0  0  0  0  0
  2  1  1  0  0  0  0
  3  1  2  0  0  0  0
  4  2  2  0  0  0  0
  5  7  2  0  0  0  0
  6  1  1  0  0  0  0
  7  3  1  0  0  0  0
  8  6  1  0  0  0  0
  9  6  2  0  0  0  0
 10  8  1  0  0  0  0
 11  2  1  0  0  0  0
 12  5  1  0  0  0  0
 13 10  1  0  0  0  0
 14  7  1  0  0  0  0
 15 13  1  0  0  0  0
 16 13  2  0  0  0  0
 17 14  1  0  0  0  0
 18 16  1  0  0  0  0
 19 15  2  0  0  0  0
 20 18  2  0  0  0  0
  5  4  1  0  0  0  0
 19 20  1  0  0  0  0
M  END
> <#>
1280

> <PLATE>
LAT016

> <ROW>
H

> <COL>
11

> <COORD>
H11

> <LATID>
LAT016H11

> <Supplier>
Chembridge

> <Suplier_CAT#>
6668156

> <Name>
Novel

> <Concentration_(mM)>
2.5

> <IC50_(µM)>
100

> <Yeast_Active?>
-

> <Pubchem_CID>
797433

$$$$
