
  -ISIS-  08130814242D

 25 27  0  0  0  0  0  0  0  0999 V2000
   -0.6625   -0.2042    0.0000 C   0  0  0  0  0  0  0  0  0  0  0  0
    0.6167    0.4958    0.0000 C   0  0  0  0  0  0  0  0  0  0  0  0
   -1.0500   -1.1292    0.0000 N   0  0  3  0  0  0  0  0  0  0  0  0
   -0.5125   -0.8042    0.0000 C   0  0  0  0  0  0  0  0  0  0  0  0
   -1.5000   -0.7542    0.0000 N   0  0  0  0  0  0  0  0  0  0  0  0
   -0.0125    0.5708    0.0000 C   0  0  0  0  0  0  0  0  0  0  0  0
    0.8375   -0.0792    0.0000 C   0  0  0  0  0  0  0  0  0  0  0  0
    1.0000    0.9625    0.0000 C   0  0  0  0  0  0  0  0  0  0  0  0
   -1.2833   -0.1792    0.0000 C   0  0  0  0  0  0  0  0  0  0  0  0
    1.4667   -0.1542    0.0000 O   0  0  0  0  0  0  0  0  0  0  0  0
    1.6000    0.8833    0.0000 O   0  0  0  0  0  0  0  0  0  0  0  0
    1.8500    0.3125    0.0000 C   0  0  3  0  0  0  0  0  0  0  0  0
   -1.0500   -1.7375    0.0000 C   0  0  0  0  0  0  0  0  0  0  0  0
    0.7500    1.5458    0.0000 O   0  0  0  0  0  0  0  0  0  0  0  0
    0.4792   -0.5667    0.0000 O   0  0  0  0  0  0  0  0  0  0  0  0
    0.0667   -1.0375    0.0000 O   0  0  0  0  0  0  0  0  0  0  0  0
   -1.5833   -2.0375    0.0000 C   0  0  0  0  0  0  0  0  0  0  0  0
   -0.5125   -2.0375    0.0000 C   0  0  0  0  0  0  0  0  0  0  0  0
   -1.0500   -2.9500    0.0000 C   0  0  0  0  0  0  0  0  0  0  0  0
   -1.5833   -2.6542    0.0000 C   0  0  0  0  0  0  0  0  0  0  0  0
   -0.5125   -2.6542    0.0000 C   0  0  0  0  0  0  0  0  0  0  0  0
   -1.0500   -3.5667    0.0000 Br  0  0  0  0  0  0  0  0  0  0  0  0
   -1.6125    0.3500    0.0000 C   0  0  0  0  0  0  0  0  0  0  0  0
    2.3792   -0.0292    0.0000 C   0  0  0  0  0  0  0  0  0  0  0  0
    2.2792    0.7458    0.0000 C   0  0  0  0  0  0  0  0  0  0  0  0
  2  6  2  0  0  0  0
  3  4  1  0  0  0  0
  4  1  2  0  0  0  0
  5  9  2  0  0  0  0
  6  1  1  0  0  0  0
  7  2  1  0  0  0  0
  8  2  1  0  0  0  0
  9  1  1  0  0  0  0
 10  7  1  0  0  0  0
 11  8  1  0  0  0  0
 12 11  1  0  0  0  0
 13  3  1  0  0  0  0
 14  8  2  0  0  0  0
 15  7  2  0  0  0  0
 16  4  1  0  0  0  0
 17 13  2  0  0  0  0
 18 13  1  0  0  0  0
 19 21  1  0  0  0  0
 20 17  1  0  0  0  0
 21 18  2  0  0  0  0
 22 19  1  0  0  0  0
 23  9  1  0  0  0  0
 24 12  1  0  0  0  0
 25 12  1  0  0  0  0
  3  5  1  0  0  0  0
 10 12  1  0  0  0  0
 19 20  2  0  0  0  0
M  END
> <#>
2077

> <PLATE>
LAT026

> <ROW>
E

> <COL>
11

> <COORD>
E11

> <LATID>
LAT026E11

> <Supplier>
Chembridge

> <Suplier_CAT#>
5705615

> <Sec_Name>
224_H10

> <Concentration_(mM)>
2.5

> <IC50_(µM)>
92

> <Yeast_Active?>
-

> <Pubchem_CID>
NULL

$$$$
