
  -ISIS-  08130814242D

 20 22  0  0  0  0  0  0  0  0999 V2000
   -2.3125    0.7958    0.0000 N   0  0  0  0  0  0  0  0  0  0  0  0
   -2.8958    0.4625    0.0000 C   0  0  0  0  0  0  0  0  0  0  0  0
   -2.3125    1.4500    0.0000 N   0  0  0  0  0  0  0  0  0  0  0  0
   -2.8958    1.7833    0.0000 C   0  0  0  0  0  0  0  0  0  0  0  0
   -3.4708    0.7958    0.0000 C   0  0  0  0  0  0  0  0  0  0  0  0
   -3.4708    1.4500    0.0000 C   0  0  0  0  0  0  0  0  0  0  0  0
   -2.3208   -0.5292    0.0000 N   0  0  0  0  0  0  0  0  0  0  0  0
   -2.8958   -0.2000    0.0000 N   0  0  0  0  0  0  0  0  0  0  0  0
   -0.5500   -1.5542    0.0000 N   0  0  0  0  0  0  0  0  0  0  0  0
   -2.3208   -1.2000    0.0000 C   0  0  0  0  0  0  0  0  0  0  0  0
   -1.7333   -1.5542    0.0000 C   0  0  0  0  0  0  0  0  0  0  0  0
   -2.8958    2.4458    0.0000 Cl  0  0  0  0  0  0  0  0  0  0  0  0
   -1.1458   -1.2167    0.0000 C   0  0  0  0  0  0  0  0  0  0  0  0
   -4.0500    0.4625    0.0000 C   0  0  0  0  0  0  0  0  0  0  0  0
   -4.0500    1.7833    0.0000 C   0  0  0  0  0  0  0  0  0  0  0  0
   -0.5500   -2.2500    0.0000 C   0  0  0  0  0  0  0  0  0  0  0  0
   -1.7333   -2.2375    0.0000 C   0  0  0  0  0  0  0  0  0  0  0  0
   -1.1458   -2.5792    0.0000 C   0  0  0  0  0  0  0  0  0  0  0  0
   -4.6333    1.4500    0.0000 C   0  0  0  0  0  0  0  0  0  0  0  0
   -4.6333    0.7958    0.0000 C   0  0  0  0  0  0  0  0  0  0  0  0
  2  1  1  0  0  0  0
  3  1  2  0  0  0  0
  4  3  1  0  0  0  0
  5  2  2  0  0  0  0
  6  4  2  0  0  0  0
  7  8  1  0  0  0  0
  8  2  1  0  0  0  0
  9 13  2  0  0  0  0
 10  7  2  0  0  0  0
 11 10  1  0  0  0  0
 12  4  1  0  0  0  0
 13 11  1  0  0  0  0
 14  5  1  0  0  0  0
 15  6  1  0  0  0  0
 16 18  2  0  0  0  0
 17 11  2  0  0  0  0
 18 17  1  0  0  0  0
 19 15  2  0  0  0  0
 20 14  2  0  0  0  0
  6  5  1  0  0  0  0
 19 20  1  0  0  0  0
  9 16  1  0  0  0  0
M  END
> <#>
1620

> <PLATE>
LAT021

> <ROW>
D

> <COL>
4

> <COORD>
D04

> <LATID>
LAT021D04

> <Supplier>
Chembridge

> <Suplier_CAT#>
5341683

> <Name>
Novel

> <Concentration_(mM)>
2.5

> <IC50_(µM)>
>100

> <Yeast_Active?>
-

> <Pubchem_CID>
1415963

$$$$
