
  -ISIS-  08130814242D

 20 22  0  0  0  0  0  0  0  0999 V2000
   -0.1833    0.9000    0.0000 C   0  0  0  0  0  0  0  0  0  0  0  0
   -1.1958    0.9125    0.0000 C   0  0  0  0  0  0  0  0  0  0  0  0
   -1.1958    0.3208    0.0000 C   0  0  0  0  0  0  0  0  0  0  0  0
   -0.6833    1.2000    0.0000 C   0  0  0  0  0  0  0  0  0  0  0  0
   -0.6833    0.0333    0.0000 C   0  0  0  0  0  0  0  0  0  0  0  0
   -0.1833    0.3333    0.0000 C   0  0  0  0  0  0  0  0  0  0  0  0
    0.3292    1.1958    0.0000 C   0  0  0  0  0  0  0  0  0  0  0  0
    0.3292    0.0458    0.0000 C   0  0  0  0  0  0  0  0  0  0  0  0
   -1.7000    1.2000    0.0000 C   0  0  0  0  0  0  0  0  0  0  0  0
   -1.7000    0.0333    0.0000 C   0  0  0  0  0  0  0  0  0  0  0  0
   -0.6625    1.7958    0.0000 O   0  0  0  0  0  0  0  0  0  0  0  0
   -0.6708   -0.5542    0.0000 O   0  0  0  0  0  0  0  0  0  0  0  0
    0.8292    0.8958    0.0000 C   0  0  0  0  0  0  0  0  0  0  0  0
    0.8292    0.3458    0.0000 C   0  0  0  0  0  0  0  0  0  0  0  0
   -2.2000    0.3333    0.0000 C   0  0  0  0  0  0  0  0  0  0  0  0
   -2.2000    0.9000    0.0000 C   0  0  0  0  0  0  0  0  0  0  0  0
    0.3500    1.7833    0.0000 O   0  0  0  0  0  0  0  0  0  0  0  0
   -1.7125   -0.5542    0.0000 O   0  0  0  0  0  0  0  0  0  0  0  0
   -1.7208    1.7958    0.0000 O   0  0  0  0  0  0  0  0  0  0  0  0
    1.3667    1.1500    0.0000 O   0  0  0  0  0  0  0  0  0  0  0  0
  2  4  1  0  0  0  0
  3  5  1  0  0  0  0
  4  1  1  0  0  0  0
  5  6  1  0  0  0  0
  6  1  2  0  0  0  0
  7  1  1  0  0  0  0
  8  6  1  0  0  0  0
  9  2  2  0  0  0  0
 10  3  2  0  0  0  0
 11  4  2  0  0  0  0
 12  5  2  0  0  0  0
 13  7  2  0  0  0  0
 14 13  1  0  0  0  0
 15 10  1  0  0  0  0
 16  9  1  0  0  0  0
 17  7  1  0  0  0  0
 18 10  1  0  0  0  0
 19  9  1  0  0  0  0
 20 13  1  0  0  0  0
 14  8  2  0  0  0  0
  2  3  1  0  0  0  0
 16 15  2  0  0  0  0
M  END
> <#>
1156

> <PLATE>
LAT015

> <ROW>
D

> <COL>
6

> <COORD>
D06

> <LATID>
LAT015D06

> <Supplier>
Chembridge

> <Suplier_CAT#>
5122149

> <Name>
Novel

> <Concentration_(mM)>
2.5

> <IC50_(µM)>
inactive

> <Yeast_Active?>
-

> <Pubchem_CID>
NULL

$$$$
