
  -ISIS-  08130814242D

 14 15  0  0  0  0  0  0  0  0999 V2000
    7.0769   -6.8411    0.0000 C   0  0  0  0  0  0  0  0  0  0  0  0
    5.9944   -7.4661    0.0000 C   0  0  0  0  0  0  0  0  0  0  0  0
    4.9118   -6.8411    0.0000 C   0  0  0  0  0  0  0  0  0  0  0  0
    4.9118   -5.5911    0.0000 C   0  0  0  0  0  0  0  0  0  0  0  0
    5.9944   -4.9661    0.0000 C   0  0  0  0  0  0  0  0  0  0  0  0
    7.0769   -5.5911    0.0000 C   0  0  0  0  0  0  0  0  0  0  0  0
    3.8293   -4.9661    0.0000 C   0  0  0  0  0  0  0  0  0  0  0  0
    2.7468   -5.5911    0.0000 N   0  0  0  0  0  0  0  0  0  0  0  0
    1.6642   -4.9661    0.0000 C   0  0  0  0  0  0  0  0  0  0  0  0
    1.6642   -3.7161    0.0000 C   0  0  0  0  0  0  0  0  0  0  0  0
    2.7468   -3.0911    0.0000 C   0  0  0  0  0  0  0  0  0  0  0  0
    3.8293   -3.7161    0.0000 N   0  0  0  0  0  0  0  0  0  0  0  0
    2.7468   -1.8411    0.0000 Cl  0  0  0  0  0  0  0  0  0  0  0  0
    0.5817   -5.5911    0.0000 Cl  0  0  0  0  0  0  0  0  0  0  0  0
  1  2  2  0  0  0  0
  2  3  1  0  0  0  0
  3  4  2  0  0  0  0
  4  5  1  0  0  0  0
  5  6  2  0  0  0  0
  1  6  1  0  0  0  0
  4  7  1  0  0  0  0
  7  8  2  0  0  0  0
  8  9  1  0  0  0  0
  9 10  2  0  0  0  0
 10 11  1  0  0  0  0
 11 12  2  0  0  0  0
  7 12  1  0  0  0  0
 11 13  1  0  0  0  0
  9 14  1  0  0  0  0
M  END
> <#>
375

> <PLATE>
LAT005

> <ROW>
G

> <COL>
8

> <COORD>
G08

> <LATID>
LAT005G08

> <Supplier>
Riedel-de Haen

> <Suplier_CAT#>
46005

> <Name>
Fenclorim

> <Concentration_(mM)>
2.5

> <IC50_(µM)>
inactive

> <Yeast_Active?>
-

> <Pubchem_CID>
77338

> <Description>
Safener

> <LATCA_Notes>
Used to protect monocot crops (i.e. "safen" them) from herbicides

$$$$
