
  -ISIS-  08130814242D

 21 22  0  0  0  0  0  0  0  0999 V2000
   -2.3125    0.2458    0.0000 C   0  0  0  0  0  0  0  0  0  0  0  0
   -2.3125   -0.7292    0.0000 N   0  0  0  0  0  0  0  0  0  0  0  0
   -3.1458    0.7125    0.0000 C   0  0  0  0  0  0  0  0  0  0  0  0
   -3.9833   -0.7375    0.0000 C   0  0  0  0  0  0  0  0  0  0  0  0
   -4.0000    0.2333    0.0000 C   0  0  0  0  0  0  0  0  0  0  0  0
   -3.1458   -1.2167    0.0000 C   0  0  0  0  0  0  0  0  0  0  0  0
   -1.4500    0.7208    0.0000 C   0  0  0  0  0  0  0  0  0  0  0  0
    0.2042    0.7458    0.0000 N   0  0  0  0  0  0  0  0  0  0  0  0
   -0.6208    0.2500    0.0000 N   0  0  0  0  0  0  0  0  0  0  0  0
   -1.4500    1.7000    0.0000 O   0  0  0  0  0  0  0  0  0  0  0  0
   -4.8333    0.7125    0.0000 N   0  0  0  0  0  0  0  0  0  0  0  0
    3.5667    0.7500    0.0000 N   0  0  0  0  0  0  0  0  0  0  0  0
   -4.8000   -1.2292    0.0000 Cl  0  0  0  0  0  0  0  0  0  0  0  0
   -3.1333    1.6833    0.0000 Cl  0  0  0  0  0  0  0  0  0  0  0  0
   -3.1458   -2.1792    0.0000 Cl  0  0  0  0  0  0  0  0  0  0  0  0
    1.0667    0.2625    0.0000 C   0  0  0  0  0  0  0  0  0  0  0  0
    1.8875    0.7333    0.0000 C   0  0  0  0  0  0  0  0  0  0  0  0
    2.7292    0.2625    0.0000 C   0  0  0  0  0  0  0  0  0  0  0  0
    3.5667    1.7125    0.0000 C   0  0  0  0  0  0  0  0  0  0  0  0
    1.8792    1.7125    0.0000 C   0  0  0  0  0  0  0  0  0  0  0  0
    2.7042    2.2083    0.0000 C   0  0  0  0  0  0  0  0  0  0  0  0
  2  1  1  0  0  0  0
  3  1  2  0  0  0  0
  4  5  2  0  0  0  0
  5  3  1  0  0  0  0
  6  2  2  0  0  0  0
  7  1  1  0  0  0  0
  8  9  1  0  0  0  0
  9  7  1  0  0  0  0
 10  7  2  0  0  0  0
 11  5  1  0  0  0  0
 12 18  1  0  0  0  0
 13  4  1  0  0  0  0
 14  3  1  0  0  0  0
 15  6  1  0  0  0  0
 16  8  2  0  0  0  0
 17 16  1  0  0  0  0
 18 17  2  0  0  0  0
 19 21  1  0  0  0  0
 20 17  1  0  0  0  0
 21 20  2  0  0  0  0
  4  6  1  0  0  0  0
 12 19  2  0  0  0  0
M  END
> <#>
1661

> <PLATE>
LAT021

> <ROW>
E

> <COL>
9

> <COORD>
E09

> <LATID>
LAT021E09

> <Supplier>
Chembridge

> <Suplier_CAT#>
5471619

> <Name>
Novel

> <Concentration_(mM)>
2.5

> <IC50_(µM)>
48

> <Yeast_Active?>
-

> <Pubchem_CID>
772178

$$$$
