
  -ISIS-  08130814242D

 36 40  0  0  0  0  0  0  0  0999 V2000
   -2.0458    1.0958    0.0000 C   0  0  0  0  0  0  0  0  0  0  0  0
   -2.4625    1.3208    0.0000 C   0  0  0  0  0  0  0  0  0  0  0  0
   -2.0458    0.6208    0.0000 C   0  0  0  0  0  0  0  0  0  0  0  0
   -1.6333    1.3208    0.0000 C   0  0  0  0  0  0  0  0  0  0  0  0
   -2.4625    0.3833    0.0000 C   0  0  0  0  0  0  0  0  0  0  0  0
   -1.2208    1.0958    0.0000 C   0  0  0  0  0  0  0  0  0  0  0  0
   -2.8708    1.0958    0.0000 C   0  0  0  0  0  0  0  0  0  0  0  0
   -2.8708    0.6208    0.0000 C   0  0  0  0  0  0  0  0  0  0  0  0
   -0.8833    1.3500    0.0000 N   0  0  3  0  0  0  0  0  0  0  0  0
   -0.6125    1.8500    0.0000 C   0  0  0  0  0  0  0  0  0  0  0  0
   -1.6333    0.3833    0.0000 C   0  0  0  0  0  0  0  0  0  0  0  0
   -1.2208    0.6208    0.0000 C   0  0  0  0  0  0  0  0  0  0  0  0
   -0.0333    1.9583    0.0000 C   0  0  0  0  0  0  0  0  0  0  0  0
   -0.3958    0.9625    0.0000 C   0  0  0  0  0  0  0  0  0  0  0  0
   -2.4458    1.7708    0.0000 O   0  0  0  0  0  0  0  0  0  0  0  0
   -2.4333    0.0500    0.0000 O   0  0  0  0  0  0  0  0  0  0  0  0
    0.8375    0.4500    0.0000 C   0  0  3  0  0  0  0  0  0  0  0  0
    0.4542    0.6208    0.0000 C   0  0  0  0  0  0  0  0  0  0  0  0
   -0.3208    0.5333    0.0000 C   0  0  0  0  0  0  0  0  0  0  0  0
   -0.0125    1.2333    0.0000 C   0  0  0  0  0  0  0  0  0  0  0  0
    0.3875    1.0708    0.0000 C   0  0  0  0  0  0  0  0  0  0  0  0
    0.0792    0.3500    0.0000 C   0  0  0  0  0  0  0  0  0  0  0  0
   -1.6000    1.6208    0.0000 O   0  0  0  0  0  0  0  0  0  0  0  0
    0.1167    2.3833    0.0000 C   0  0  0  0  0  0  0  0  0  0  0  0
   -3.2958    1.3208    0.0000 C   0  0  0  0  0  0  0  0  0  0  0  0
   -3.2958    0.3833    0.0000 C   0  0  0  0  0  0  0  0  0  0  0  0
    1.2542    0.6458    0.0000 C   0  0  0  0  0  0  0  0  0  0  0  0
    1.2000    0.2708    0.0000 C   0  0  0  0  0  0  0  0  0  0  0  0
    0.8375   -0.0167    0.0000 C   0  0  0  0  0  0  0  0  0  0  0  0
   -0.1833    2.7333    0.0000 C   0  0  0  0  0  0  0  0  0  0  0  0
    0.5667    2.4625    0.0000 C   0  0  0  0  0  0  0  0  0  0  0  0
   -3.7000    0.6208    0.0000 C   0  0  0  0  0  0  0  0  0  0  0  0
   -3.7000    1.0958    0.0000 C   0  0  0  0  0  0  0  0  0  0  0  0
    0.7292    2.8958    0.0000 C   0  0  0  0  0  0  0  0  0  0  0  0
   -0.0208    3.1708    0.0000 C   0  0  0  0  0  0  0  0  0  0  0  0
    0.4375    3.2708    0.0000 C   0  0  0  0  0  0  0  0  0  0  0  0
  2  1  1  0  0  0  0
  3  1  2  0  0  0  0
  4  1  1  0  0  0  0
  5  3  1  0  0  0  0
  6  4  2  0  0  0  0
  7  2  1  0  0  0  0
  8  5  1  0  0  0  0
  9  6  1  0  0  0  0
 10  9  1  0  0  0  0
 11  3  1  0  0  0  0
 12  6  1  0  0  0  0
 13 10  2  0  0  0  0
 14  9  1  0  0  0  0
 15  2  2  0  0  0  0
 16  5  2  0  0  0  0
 17 18  1  0  0  0  0
 18 21  2  0  0  0  0
 19 14  1  0  0  0  0
 20 14  2  0  0  0  0
 21 20  1  0  0  0  0
 22 19  2  0  0  0  0
 23  4  1  0  0  0  0
 24 13  1  0  0  0  0
 25  7  1  0  0  0  0
 26  8  1  0  0  0  0
 27 17  1  0  0  0  0
 28 17  1  0  0  0  0
 29 17  1  0  0  0  0
 30 24  2  0  0  0  0
 31 24  1  0  0  0  0
 32 26  2  0  0  0  0
 33 25  2  0  0  0  0
 34 31  2  0  0  0  0
 35 30  1  0  0  0  0
 36 34  1  0  0  0  0
 12 11  2  0  0  0  0
  7  8  2  0  0  0  0
 32 33  1  0  0  0  0
 18 22  1  0  0  0  0
 35 36  2  0  0  0  0
M  END
> <#>
1193

> <PLATE>
LAT015

> <ROW>
A

> <COL>
11

> <COORD>
A11

> <LATID>
LAT015A11

> <Supplier>
Chembridge

> <Suplier_CAT#>
5628052

> <Name>
Novel

> <Concentration_(mM)>
2.5

> <IC50_(µM)>
inactive

> <Yeast_Active?>
-

> <Pubchem_CID>
NULL

$$$$
