
  -ISIS-  08130814242D

 18 19  0  0  0  0  0  0  0  0999 V2000
    0.4417   -2.5125    0.0000 N   0  0  0  0  0  0  0  0  0  0  0  0
    0.9250   -3.1792    0.0000 N   0  0  3  0  0  0  0  0  0  0  0  0
    1.7042   -2.0917    0.0000 C   0  0  0  0  0  0  0  0  0  0  0  0
    1.7042   -2.9250    0.0000 C   0  0  0  0  0  0  0  0  0  0  0  0
    2.4250   -1.6792    0.0000 C   0  0  0  0  0  0  0  0  0  0  0  0
    0.9250   -1.8417    0.0000 C   0  0  0  0  0  0  0  0  0  0  0  0
    3.1417   -2.0917    0.0000 C   0  0  0  0  0  0  0  0  0  0  0  0
    3.8542   -1.6792    0.0000 C   0  0  0  0  0  0  0  0  0  0  0  0
    4.5750   -2.1042    0.0000 C   0  0  0  0  0  0  0  0  0  0  0  0
    3.8625   -0.8500    0.0000 O   0  0  0  0  0  0  0  0  0  0  0  0
    4.5750   -2.9375    0.0000 C   0  0  0  0  0  0  0  0  0  0  0  0
    5.2875   -1.6917    0.0000 C   0  0  0  0  0  0  0  0  0  0  0  0
    6.0042   -2.9375    0.0000 C   0  0  0  0  0  0  0  0  0  0  0  0
    6.0042   -2.1042    0.0000 C   0  0  0  0  0  0  0  0  0  0  0  0
    5.2875   -3.3500    0.0000 C   0  0  0  0  0  0  0  0  0  0  0  0
    0.6667   -3.9667    0.0000 C   0  0  0  0  0  0  0  0  0  0  0  0
    2.3792   -3.4167    0.0000 C   0  0  0  0  0  0  0  0  0  0  0  0
    6.7250   -3.3542    0.0000 O   0  0  0  0  0  0  0  0  0  0  0  0
  2  1  1  0  0  0  0
  3  6  1  0  0  0  0
  4  2  1  0  0  0  0
  5  3  1  0  0  0  0
  6  1  2  0  0  0  0
  7  5  2  0  0  0  0
  8  7  1  0  0  0  0
  9  8  1  0  0  0  0
 10  8  2  0  0  0  0
 11  9  2  0  0  0  0
 12  9  1  0  0  0  0
 13 14  1  0  0  0  0
 14 12  2  0  0  0  0
 15 11  1  0  0  0  0
 16  2  1  0  0  0  0
 17  4  1  0  0  0  0
 18 13  1  0  0  0  0
  4  3  2  0  0  0  0
 15 13  2  0  0  0  0
M  END
> <#>
1370

> <PLATE>
LAT018

> <ROW>
B

> <COL>
3

> <COORD>
B03

> <LATID>
LAT018B03

> <Supplier>
Chembridge

> <Suplier_CAT#>
7251561

> <Name>
Novel

> <Concentration_(mM)>
2.5

> <IC50_(µM)>
inactive

> <Yeast_Active?>
-

> <Pubchem_CID>
2931959

$$$$
