
  -ISIS-  08130814242D

 28 29  0  0  0  0  0  0  0  0999 V2000
    2.1363   -5.2372    0.0000 N   0  0  3  0  0  0  0  0  0  0  0  0
    1.9197   -4.4372    0.0000 C   0  0  0  0  0  0  0  0  0  0  0  0
    1.0919   -4.3961    0.0000 N   0  0  0  0  0  0  0  0  0  0  0  0
    0.7969   -5.1707    0.0000 C   0  0  0  0  0  0  0  0  0  0  0  0
    1.4424   -5.6905    0.0000 C   0  0  0  0  0  0  0  0  0  0  0  0
    7.8466   -2.7580    0.0000 C   0  0  0  0  0  0  0  0  0  0  0  0
    8.5570   -3.1706    0.0000 C   0  0  0  0  0  0  0  0  0  0  0  0
    9.2673   -2.7618    0.0000 C   0  0  0  0  0  0  0  0  0  0  0  0
    9.2686   -1.9405    0.0000 C   0  0  0  0  0  0  0  0  0  0  0  0
    8.5535   -1.5298    0.0000 C   0  0  0  0  0  0  0  0  0  0  0  0
    7.8460   -1.9410    0.0000 C   0  0  0  0  0  0  0  0  0  0  0  0
    2.8569   -3.1833    0.0000 C   0  0  0  0  0  0  0  0  0  0  0  0
    2.8557   -4.0107    0.0000 C   0  0  0  0  0  0  0  0  0  0  0  0
    3.5706   -4.4235    0.0000 C   0  0  0  0  0  0  0  0  0  0  0  0
    4.2870   -4.0102    0.0000 C   0  0  0  0  0  0  0  0  0  0  0  0
    4.2841   -3.1797    0.0000 C   0  0  0  0  0  0  0  0  0  0  0  0
    3.5688   -2.7705    0.0000 C   0  0  0  0  0  0  0  0  0  0  0  0
    3.5663   -1.9455    0.0000 O   0  0  0  0  0  0  0  0  0  0  0  0
    4.9958   -2.7667    0.0000 O   0  0  0  0  0  0  0  0  0  0  0  0
    5.7083   -3.1750    0.0000 C   0  0  0  0  0  0  0  0  0  0  0  0
    6.4208   -2.7625    0.0000 C   0  0  0  0  0  0  0  0  0  0  0  0
    7.1333   -3.1708    0.0000 C   0  0  0  0  0  0  0  0  0  0  0  0
    3.5667   -5.2417    0.0000 C   0  0  0  0  0  0  0  0  0  0  0  0
    2.8542   -5.6500    0.0000 C   0  0  0  0  0  0  0  0  0  0  0  0
    9.9829   -1.5278    0.0000 O   0  0  0  0  0  0  0  0  0  0  0  0
   10.6975   -1.9400    0.0000 C   0  0  0  0  0  0  0  0  0  0  0  0
    2.8506   -1.5352    0.0000 C   0  0  0  0  0  0  0  0  0  0  0  0
    5.8792   -5.0208    0.0000 Cl  0  0  0  0  0  0  0  0  0  0  0  0
 13 14  1  0  0  0  0
  6  7  2  0  0  0  0
 14 15  2  0  0  0  0
 15 16  1  0  0  0  0
  7  8  1  0  0  0  0
 16 17  2  0  0  0  0
 17 12  1  0  0  0  0
  2  3  2  0  0  0  0
 17 18  1  0  0  0  0
  8  9  2  0  0  0  0
 16 19  1  0  0  0  0
  3  4  1  0  0  0  0
 19 20  1  0  0  0  0
  9 10  1  0  0  0  0
 20 21  1  0  0  0  0
  4  5  2  0  0  0  0
 21 22  1  0  0  0  0
 22  6  1  0  0  0  0
 10 11  2  0  0  0  0
 14 23  1  0  0  0  0
 11  6  1  0  0  0  0
 23 24  1  0  0  0  0
 24  1  1  0  0  0  0
  5  1  1  0  0  0  0
  9 25  1  0  0  0  0
  1  2  1  0  0  0  0
 25 26  1  0  0  0  0
 12 13  2  0  0  0  0
 18 27  1  0  0  0  0
M  END
> <#>
279

> <PLATE>
LAT004

> <ROW>
G

> <COL>
6

> <COORD>
G06

> <LATID>
LAT004G06

> <Supplier>
Sigma

> <Suplier_CAT#>
S 7809

> <Name>
Skf 96365

> <Concentration_(mM)>
2.5

> <IC50_(µM)>
12

> <Yeast_Active?>
+

> <Pubchem_CID>
4564402

> <Description>
Selective inhibitor of receptor-mediated and voltage-gated Ca2+ entry

$$$$
