
  -ISIS-  08130814242D

 21 22  0  0  0  0  0  0  0  0999 V2000
    8.5542   -1.9875    0.0000 N   0  0  0  0  0  0  0  0  0  0  0  0
    6.8292   -1.9875    0.0000 C   0  0  0  0  0  0  0  0  0  0  0  0
    7.7042   -2.4792    0.0000 N   0  0  0  0  0  0  0  0  0  0  0  0
   12.1375   -1.9875    0.0000 N   0  0  0  0  0  0  0  0  0  0  0  0
    6.8292   -0.9500    0.0000 O   0  0  0  0  0  0  0  0  0  0  0  0
    9.3667   -2.4792    0.0000 C   0  0  0  0  0  0  0  0  0  0  0  0
   10.3167   -1.9875    0.0000 C   0  0  0  0  0  0  0  0  0  0  0  0
    3.3667   -2.0292    0.0000 N   0  0  0  0  0  0  0  0  0  0  0  0
    2.5042   -2.5292    0.0000 C   0  0  0  0  0  0  0  0  0  0  0  0
   11.2542   -2.5500    0.0000 C   0  0  0  0  0  0  0  0  0  0  0  0
    5.9667   -2.5000    0.0000 C   0  0  0  0  0  0  0  0  0  0  0  0
   12.1375   -0.9792    0.0000 C   0  0  0  0  0  0  0  0  0  0  0  0
   10.3167   -1.0000    0.0000 C   0  0  0  0  0  0  0  0  0  0  0  0
    4.2375   -2.5167    0.0000 C   0  0  0  0  0  0  0  0  0  0  0  0
    1.6375   -2.0375    0.0000 C   0  0  0  0  0  0  0  0  0  0  0  0
    2.5000   -3.5292    0.0000 C   0  0  0  0  0  0  0  0  0  0  0  0
    5.1000   -2.0042    0.0000 C   0  0  0  0  0  0  0  0  0  0  0  0
   11.2375   -0.5000    0.0000 C   0  0  0  0  0  0  0  0  0  0  0  0
    0.7792   -2.5042    0.0000 C   0  0  0  0  0  0  0  0  0  0  0  0
    1.6042   -4.0292    0.0000 C   0  0  0  0  0  0  0  0  0  0  0  0
    0.7667   -3.5042    0.0000 C   0  0  0  0  0  0  0  0  0  0  0  0
  2  3  1  0  0  0  0
  3  1  1  0  0  0  0
  4 10  2  0  0  0  0
  5  2  2  0  0  0  0
  6  1  2  0  0  0  0
  7  6  1  0  0  0  0
  8 14  1  0  0  0  0
  9  8  1  0  0  0  0
 10  7  1  0  0  0  0
 11  2  1  0  0  0  0
 12 18  2  0  0  0  0
 13  7  2  0  0  0  0
 14 17  1  0  0  0  0
 15  9  2  0  0  0  0
 16  9  1  0  0  0  0
 17 11  1  0  0  0  0
 18 13  1  0  0  0  0
 19 15  1  0  0  0  0
 20 16  2  0  0  0  0
 21 20  1  0  0  0  0
  4 12  1  0  0  0  0
 19 21  2  0  0  0  0
M  END
> <#>
1656

> <PLATE>
LAT021

> <ROW>
H

> <COL>
8

> <COORD>
H08

> <LATID>
LAT021H08

> <Supplier>
Chembridge

> <Suplier_CAT#>
5248461

> <Name>
Novel

> <Concentration_(mM)>
2.5

> <IC50_(µM)>
>100

> <Yeast_Active?>
-

> <Pubchem_CID>
1886524

$$$$
