
  -ISIS-  08130814242D

 19 20  0  0  0  0  0  0  0  0999 V2000
    6.5292    1.3083    0.0000 N   0  3  0  0  0  0  0  0  0  0  0  0
    5.8125    0.8958    0.0000 C   0  0  0  0  0  0  0  0  0  0  0  0
    7.2417    0.8958    0.0000 O   0  5  0  0  0  0  0  0  0  0  0  0
    6.5292    2.1333    0.0000 O   0  0  0  0  0  0  0  0  0  0  0  0
    1.5167    0.9083    0.0000 C   0  0  0  0  0  0  0  0  0  0  0  0
    2.2375    1.3208    0.0000 C   0  0  0  0  0  0  0  0  0  0  0  0
    2.9500    0.9000    0.0000 O   0  0  0  0  0  0  0  0  0  0  0  0
    5.1000    1.3125    0.0000 C   0  0  0  0  0  0  0  0  0  0  0  0
    1.5167    0.0750    0.0000 C   0  0  0  0  0  0  0  0  0  0  0  0
    0.8042   -0.3375    0.0000 O   0  0  0  0  0  0  0  0  0  0  0  0
    4.3875    0.9000    0.0000 C   0  0  0  0  0  0  0  0  0  0  0  0
    3.6667    1.3125    0.0000 C   0  0  0  0  0  0  0  0  0  0  0  0
    5.8125    0.0708    0.0000 C   0  0  0  0  0  0  0  0  0  0  0  0
    5.0917   -0.3417    0.0000 C   0  0  0  0  0  0  0  0  0  0  0  0
    0.8042    1.3208    0.0000 C   0  0  0  0  0  0  0  0  0  0  0  0
    2.2375    2.1458    0.0000 C   0  0  0  0  0  0  0  0  0  0  0  0
    4.3750    0.0708    0.0000 C   0  0  0  0  0  0  0  0  0  0  0  0
    0.8042    2.1458    0.0000 C   0  0  0  0  0  0  0  0  0  0  0  0
    1.5250    2.5583    0.0000 C   0  0  0  0  0  0  0  0  0  0  0  0
  2  1  1  0  0  0  0
  3  1  1  0  0  0  0
  4  1  2  0  0  0  0
  5  6  1  0  0  0  0
  6  7  1  0  0  0  0
  7 12  1  0  0  0  0
  8  2  2  0  0  0  0
  9  5  1  0  0  0  0
 10  9  2  0  0  0  0
 11  8  1  0  0  0  0
 12 11  1  0  0  0  0
 13  2  1  0  0  0  0
 14 13  2  0  0  0  0
 15  5  2  0  0  0  0
 16  6  2  0  0  0  0
 17 14  1  0  0  0  0
 18 19  2  0  0  0  0
 19 16  1  0  0  0  0
 11 17  2  0  0  0  0
 18 15  1  0  0  0  0
M  CHG  2   1   1   3  -1
M  END
> <#>
1902

> <PLATE>
LAT024

> <ROW>
F

> <COL>
9

> <COORD>
F09

> <LATID>
LAT024F09

> <Supplier>
Chembridge

> <Suplier_CAT#>
6464059

> <Name>
S001 D09

> <Concentration_(mM)>
2.5

> <IC50_(µM)>
>100

> <Yeast_Active?>
-

> <Pubchem_CID>
882998

$$$$
