
  -ISIS-  08130814242D

 21 23  0  0  0  0  0  0  0  0999 V2000
   -1.9708   -0.3667    0.0000 N   0  0  3  0  0  0  0  0  0  0  0  0
   -1.0125   -0.3667    0.0000 C   0  0  3  0  0  0  0  0  0  0  0  0
   -0.7333   -1.2667    0.0000 S   0  0  0  0  0  0  0  0  0  0  0  0
   -2.2500   -1.2667    0.0000 C   0  0  0  0  0  0  0  0  0  0  0  0
   -1.4958   -1.8042    0.0000 C   0  0  3  0  0  0  0  0  0  0  0  0
   -2.4333    0.4708    0.0000 C   0  0  0  0  0  0  0  0  0  0  0  0
   -0.5500    0.4708    0.0000 C   0  0  0  0  0  0  0  0  0  0  0  0
   -3.1708   -1.5667    0.0000 O   0  0  0  0  0  0  0  0  0  0  0  0
   -1.9708    1.2958    0.0000 C   0  0  0  0  0  0  0  0  0  0  0  0
   -3.3958    0.4708    0.0000 C   0  0  0  0  0  0  0  0  0  0  0  0
   -1.0125    1.2958    0.0000 C   0  0  0  0  0  0  0  0  0  0  0  0
    0.4042    0.4708    0.0000 C   0  0  0  0  0  0  0  0  0  0  0  0
    0.8875    1.2958    0.0000 C   0  0  0  0  0  0  0  0  0  0  0  0
   -2.4333    2.1125    0.0000 C   0  0  0  0  0  0  0  0  0  0  0  0
   -3.8500    1.2958    0.0000 C   0  0  0  0  0  0  0  0  0  0  0  0
   -0.5500    2.1125    0.0000 C   0  0  0  0  0  0  0  0  0  0  0  0
    0.4042    2.1125    0.0000 C   0  0  0  0  0  0  0  0  0  0  0  0
   -3.3958    2.1125    0.0000 C   0  0  0  0  0  0  0  0  0  0  0  0
   -1.5125   -2.7500    0.0000 C   0  0  0  0  0  0  0  0  0  0  0  0
   -3.8708    2.9333    0.0000 C   0  0  0  0  0  0  0  0  0  0  0  0
    0.8875    2.9333    0.0000 C   0  0  0  0  0  0  0  0  0  0  0  0
  2  1  1  0  0  0  0
  3  2  1  0  0  0  0
  4  1  1  0  0  0  0
  5  4  1  0  0  0  0
  6  1  1  0  0  0  0
  7  2  1  0  0  0  0
  8  4  2  0  0  0  0
  9  6  1  0  0  0  0
 10  6  2  0  0  0  0
 11  7  2  0  0  0  0
 12  7  1  0  0  0  0
 13 12  2  0  0  0  0
 14  9  2  0  0  0  0
 15 10  1  0  0  0  0
 16 11  1  0  0  0  0
 17 13  1  0  0  0  0
 18 15  2  0  0  0  0
 19  5  1  0  0  0  0
 20 18  1  0  0  0  0
 21 17  1  0  0  0  0
  3  5  1  0  0  0  0
 14 18  1  0  0  0  0
 17 16  2  0  0  0  0
M  END
> <#>
899

> <PLATE>
LAT012

> <ROW>
C

> <COL>
4

> <COORD>
C04

> <LATID>
LAT012C04

> <Supplier>
Chembridge

> <Suplier_CAT#>
5677002

> <Name>
Novel

> <Sec_Name>
214_C05

> <Concentration_(mM)>
2.5

> <IC50_(µM)>
75

> <Yeast_Active?>
-

> <Pubchem_CID>
791727

$$$$
