
  -ISIS-  08130814242D

 30 32  0  0  0  0  0  0  0  0999 V2000
    9.5667    1.9125    0.0000 S   0  0  3  0  0  0  0  0  0  0  0  0
    8.9167    1.5375    0.0000 C   0  0  0  0  0  0  0  0  0  0  0  0
   10.1000    1.3833    0.0000 N   0  0  0  0  0  0  0  0  0  0  0  0
    8.2667    1.9125    0.0000 C   0  0  0  0  0  0  0  0  0  0  0  0
    8.9167    0.7875    0.0000 C   0  0  0  0  0  0  0  0  0  0  0  0
   13.0000    2.1583    0.0000 C   0  0  0  0  0  0  0  0  0  0  0  0
    7.6167    1.5375    0.0000 C   0  0  0  0  0  0  0  0  0  0  0  0
    8.2667    0.4125    0.0000 C   0  0  0  0  0  0  0  0  0  0  0  0
   10.1417    2.3958    0.0000 O   0  0  0  0  0  0  0  0  0  0  0  0
    9.1417    2.5250    0.0000 O   0  0  0  0  0  0  0  0  0  0  0  0
    7.6167    0.7875    0.0000 C   0  0  0  0  0  0  0  0  0  0  0  0
   13.5292    1.6333    0.0000 N   0  0  0  0  0  0  0  0  0  0  0  0
   12.2750    1.9625    0.0000 C   0  0  0  0  0  0  0  0  0  0  0  0
   14.5917    0.5708    0.0000 N   0  0  0  0  0  0  0  0  0  0  0  0
   13.1917    2.8833    0.0000 O   0  0  0  0  0  0  0  0  0  0  0  0
   10.8250    1.5750    0.0000 C   0  0  0  0  0  0  0  0  0  0  0  0
   11.7417    2.4958    0.0000 C   0  0  0  0  0  0  0  0  0  0  0  0
   12.0792    1.2458    0.0000 C   0  0  0  0  0  0  0  0  0  0  0  0
   14.2542    1.8208    0.0000 C   0  0  0  0  0  0  0  0  0  0  0  0
   14.7792    1.2958    0.0000 C   0  0  0  0  0  0  0  0  0  0  0  0
   11.0167    2.3000    0.0000 C   0  0  0  0  0  0  0  0  0  0  0  0
   11.3542    1.0458    0.0000 C   0  0  0  0  0  0  0  0  0  0  0  0
    8.2667    2.6625    0.0000 C   0  0  0  0  0  0  0  0  0  0  0  0
    9.5667    0.4125    0.0000 C   0  0  0  0  0  0  0  0  0  0  0  0
    8.2667   -0.3375    0.0000 C   0  0  0  0  0  0  0  0  0  0  0  0
    6.9667    1.9125    0.0000 C   0  0  0  0  0  0  0  0  0  0  0  0
   15.1167    0.0375    0.0000 C   0  0  0  0  0  0  0  0  0  0  0  0
   15.5042    1.4875    0.0000 C   0  0  0  0  0  0  0  0  0  0  0  0
   15.8417    0.2333    0.0000 C   0  0  0  0  0  0  0  0  0  0  0  0
   16.0375    0.9583    0.0000 C   0  0  0  0  0  0  0  0  0  0  0  0
  2  1  1  0  0  0  0
  3  1  1  0  0  0  0
  4  2  2  0  0  0  0
  5  2  1  0  0  0  0
  6 13  1  0  0  0  0
  7  4  1  0  0  0  0
  8  5  2  0  0  0  0
  9  1  2  0  0  0  0
 10  1  2  0  0  0  0
 11  8  1  0  0  0  0
 12  6  1  0  0  0  0
 13 18  1  0  0  0  0
 14 20  2  0  0  0  0
 15  6  2  0  0  0  0
 16  3  1  0  0  0  0
 17 21  1  0  0  0  0
 18 22  2  0  0  0  0
 19 12  1  0  0  0  0
 20 19  1  0  0  0  0
 21 16  2  0  0  0  0
 22 16  1  0  0  0  0
 23  4  1  0  0  0  0
 24  5  1  0  0  0  0
 25  8  1  0  0  0  0
 26  7  1  0  0  0  0
 27 14  1  0  0  0  0
 28 20  1  0  0  0  0
 29 30  1  0  0  0  0
 30 28  2  0  0  0  0
 17 13  2  0  0  0  0
 11  7  2  0  0  0  0
 29 27  2  0  0  0  0
M  END
> <#>
1520

> <PLATE>
LAT019

> <ROW>
H

> <COL>
11

> <COORD>
H11

> <LATID>
LAT019H11

> <Supplier>
Chembridge

> <Suplier_CAT#>
7870325

> <Name>
Novel

> <Concentration_(mM)>
2.5

> <IC50_(µM)>
inactive

> <Yeast_Active?>
-

> <Pubchem_CID>
NULL

$$$$
