
  -ISIS-  08130814242D

 18 19  0  0  0  0  0  0  0  0999 V2000
    4.8792  -11.9625    0.0000 N   0  0  0  0  0  0  0  0  0  0  0  0
    5.3792  -11.6500    0.0000 C   0  0  0  0  0  0  0  0  0  0  0  0
    5.2375  -11.0792    0.0000 N   0  0  0  0  0  0  0  0  0  0  0  0
    4.6500  -11.0417    0.0000 N   0  0  0  0  0  0  0  0  0  0  0  0
    7.3917  -11.3625    0.0000 C   0  0  0  0  0  0  0  0  0  0  0  0
    4.4292  -11.5875    0.0000 C   0  0  0  0  0  0  0  0  0  0  0  0
    7.3042  -10.7792    0.0000 C   0  0  0  0  0  0  0  0  0  0  0  0
    6.9292  -11.7250    0.0000 C   0  0  0  0  0  0  0  0  0  0  0  0
    7.7667  -10.4167    0.0000 C   0  0  0  0  0  0  0  0  0  0  0  0
    7.9375  -11.5792    0.0000 C   0  0  0  0  0  0  0  0  0  0  0  0
    5.9250  -11.8667    0.0000 S   0  0  0  0  0  0  0  0  0  0  0  0
    6.3875  -11.5042    0.0000 C   0  0  0  0  0  0  0  0  0  0  0  0
    7.0125  -12.3042    0.0000 O   0  0  0  0  0  0  0  0  0  0  0  0
    8.3167  -10.6417    0.0000 C   0  0  0  0  0  0  0  0  0  0  0  0
    6.7625  -10.5667    0.0000 O   0  0  0  0  0  0  0  0  0  0  0  0
    8.4000  -11.2167    0.0000 C   0  0  0  0  0  0  0  0  0  0  0  0
    8.7792  -10.2750    0.0000 O   0  0  0  0  0  0  0  0  0  0  0  0
    3.8625  -11.7292    0.0000 C   0  0  0  0  0  0  0  0  0  0  0  0
  2  1  1  0  0  0  0
  3  2  2  0  0  0  0
  4  6  2  0  0  0  0
  5  8  1  0  0  0  0
  6  1  1  0  0  0  0
  7  5  1  0  0  0  0
  8 12  1  0  0  0  0
  9  7  2  0  0  0  0
 10  5  2  0  0  0  0
 11  2  1  0  0  0  0
 12 11  1  0  0  0  0
 13  8  2  0  0  0  0
 14 16  2  0  0  0  0
 15  7  1  0  0  0  0
 16 10  1  0  0  0  0
 17 14  1  0  0  0  0
 18  6  1  0  0  0  0
  3  4  1  0  0  0  0
  9 14  1  0  0  0  0
M  END
> <#>
1264

> <PLATE>
LAT016

> <ROW>
H

> <COL>
9

> <COORD>
H09

> <LATID>
LAT016H09

> <Supplier>
Chembridge

> <Suplier_CAT#>
6606587

> <Name>
Novel

> <Concentration_(mM)>
2.5

> <IC50_(µM)>
inactive

> <Yeast_Active?>
-

> <Pubchem_CID>
NULL

$$$$
