
  -ISIS-  08130814242D

 24 25  0  0  0  0  0  0  0  0999 V2000
    3.4542    1.2833    0.0000 C   0  0  0  0  0  0  0  0  0  0  0  0
    3.8917    0.6708    0.0000 O   0  0  0  0  0  0  0  0  0  0  0  0
    3.8917    1.8833    0.0000 C   0  0  0  0  0  0  0  0  0  0  0  0
    4.6042    0.9083    0.0000 C   0  0  0  0  0  0  0  0  0  0  0  0
    4.6042    1.6583    0.0000 C   0  0  0  0  0  0  0  0  0  0  0  0
    2.7042    1.2833    0.0000 C   0  0  0  0  0  0  0  0  0  0  0  0
    7.8000    0.1958    0.0000 N   0  0  0  0  0  0  0  0  0  0  0  0
    1.2042    1.2833    0.0000 C   0  0  0  0  0  0  0  0  0  0  0  0
    2.3292    0.6333    0.0000 C   0  0  0  0  0  0  0  0  0  0  0  0
    2.3292    1.9333    0.0000 C   0  0  0  0  0  0  0  0  0  0  0  0
    1.5792    1.9333    0.0000 C   0  0  0  0  0  0  0  0  0  0  0  0
    1.5792    0.6333    0.0000 C   0  0  0  0  0  0  0  0  0  0  0  0
    5.9000    0.7708    0.0000 N   0  0  0  0  0  0  0  0  0  0  0  0
    0.4542    1.2833    0.0000 C   0  0  3  0  0  0  0  0  0  0  0  0
    7.1917    0.6333    0.0000 C   0  0  0  0  0  0  0  0  0  0  0  0
    5.2167    0.4625    0.0000 C   0  0  0  0  0  0  0  0  0  0  0  0
    0.0792    0.6333    0.0000 O   0  0  0  0  0  0  0  0  0  0  0  0
    6.5042    0.3250    0.0000 C   0  0  0  0  0  0  0  0  0  0  0  0
    8.4792    0.4958    0.0000 C   0  0  0  0  0  0  0  0  0  0  0  0
    0.0792    1.9333    0.0000 C   0  0  0  0  0  0  0  0  0  0  0  0
    7.2667    1.3833    0.0000 C   0  0  0  0  0  0  0  0  0  0  0  0
    8.5625    1.2458    0.0000 C   0  0  0  0  0  0  0  0  0  0  0  0
    7.9542    1.6833    0.0000 C   0  0  0  0  0  0  0  0  0  0  0  0
    9.3125    0.1958    0.0000 Cl  0  0  0  0  0  0  0  0  0  0  0  0
  2  1  1  0  0  0  0
  3  1  2  0  0  0  0
  4  2  1  0  0  0  0
  5  3  1  0  0  0  0
  6  1  1  0  0  0  0
  7 15  2  0  0  0  0
  8 11  2  0  0  0  0
  9  6  1  0  0  0  0
 10  6  2  0  0  0  0
 11 10  1  0  0  0  0
 12  9  2  0  0  0  0
 13 16  1  0  0  0  0
 14  8  1  0  0  0  0
 15 18  1  0  0  0  0
 16  4  1  0  0  0  0
 17 14  1  0  0  0  0
 18 13  1  0  0  0  0
 19  7  1  0  0  0  0
 20 14  1  0  0  0  0
 21 15  1  0  0  0  0
 22 23  1  0  0  0  0
 23 21  2  0  0  0  0
  5  4  2  0  0  0  0
 12  8  1  0  0  0  0
 19 22  2  0  0  0  0
M  END
> <#>
1567

> <PLATE>
LAT020

> <ROW>
G

> <COL>
7

> <COORD>
G07

> <LATID>
LAT020G07

> <Supplier>
Chembridge

> <Suplier_CAT#>
9035602

> <Name>
Novel

> <Concentration_(mM)>
2.5

> <IC50_(µM)>
inactive

> <Yeast_Active?>
-

> <Pubchem_CID>
4724994

$$$$
