
  -ISIS-  08130814242D

 24 26  0  0  0  0  0  0  0  0999 V2000
    1.6292   -0.6500    0.0000 S   0  0  3  0  0  0  0  0  0  0  0  0
    1.6292    0.1333    0.0000 C   0  0  0  0  0  0  0  0  0  0  0  0
    0.9500    0.5333    0.0000 C   0  0  0  0  0  0  0  0  0  0  0  0
    1.6292   -1.4292    0.0000 N   0  0  0  0  0  0  0  0  0  0  0  0
    0.9500    1.3125    0.0000 C   0  0  0  0  0  0  0  0  0  0  0  0
    2.3042    0.5125    0.0000 C   0  0  0  0  0  0  0  0  0  0  0  0
    2.4042   -0.6500    0.0000 O   0  0  0  0  0  0  0  0  0  0  0  0
    0.8500   -0.6500    0.0000 O   0  0  0  0  0  0  0  0  0  0  0  0
    1.6292    1.7125    0.0000 C   0  0  0  0  0  0  0  0  0  0  0  0
    1.6292   -2.9667    0.0000 N   0  0  0  0  0  0  0  0  0  0  0  0
    0.9500   -1.8042    0.0000 C   0  0  0  0  0  0  0  0  0  0  0  0
    2.3042    1.3333    0.0000 C   0  0  0  0  0  0  0  0  0  0  0  0
    0.9500   -2.5875    0.0000 C   0  0  0  0  0  0  0  0  0  0  0  0
    1.6292    2.4958    0.0000 O   0  0  0  0  0  0  0  0  0  0  0  0
    0.2667    0.1333    0.0000 C   0  0  0  0  0  0  0  0  0  0  0  0
    0.2667    1.7125    0.0000 C   0  0  0  0  0  0  0  0  0  0  0  0
    1.6500   -3.7500    0.0000 C   0  0  0  0  0  0  0  0  0  0  0  0
    0.2667   -2.9875    0.0000 C   0  0  0  0  0  0  0  0  0  0  0  0
    2.2875    2.8708    0.0000 C   0  0  0  0  0  0  0  0  0  0  0  0
   -0.4125    0.5125    0.0000 C   0  0  0  0  0  0  0  0  0  0  0  0
   -0.4125    1.3333    0.0000 C   0  0  0  0  0  0  0  0  0  0  0  0
    2.2875    3.6500    0.0000 C   0  0  0  0  0  0  0  0  0  0  0  0
    0.9500   -4.1500    0.0000 C   0  0  0  0  0  0  0  0  0  0  0  0
    0.2667   -3.7667    0.0000 C   0  0  0  0  0  0  0  0  0  0  0  0
  2  1  1  0  0  0  0
  3  2  1  0  0  0  0
  4  1  1  0  0  0  0
  5  3  1  0  0  0  0
  6  2  2  0  0  0  0
  7  1  2  0  0  0  0
  8  1  2  0  0  0  0
  9 12  2  0  0  0  0
 10 13  2  0  0  0  0
 11  4  1  0  0  0  0
 12  6  1  0  0  0  0
 13 11  1  0  0  0  0
 14  9  1  0  0  0  0
 15  3  2  0  0  0  0
 16  5  2  0  0  0  0
 17 10  1  0  0  0  0
 18 13  1  0  0  0  0
 19 14  1  0  0  0  0
 20 15  1  0  0  0  0
 21 20  2  0  0  0  0
 22 19  1  0  0  0  0
 23 24  1  0  0  0  0
 24 18  2  0  0  0  0
  9  5  1  0  0  0  0
 21 16  1  0  0  0  0
 17 23  2  0  0  0  0
M  END
> <#>
1745

> <PLATE>
LAT022

> <ROW>
A

> <COL>
10

> <COORD>
A10

> <LATID>
LAT022A10

> <Supplier>
Chembridge

> <Suplier_CAT#>
5656942

> <Name>
Pyrabactin B

> <Sec_Name>
203_E03

> <Concentration_(mM)>
2.5

> <IC50_(µM)>
12

> <Yeast_Active?>
-

> <Pubchem_CID>
794386

$$$$
