
  -ISIS-  08130814242D

 23 25  0  0  0  0  0  0  0  0999 V2000
    4.6146   -2.0595    0.0000 N   0  0  3  0  0  0  0  0  0  0  0  0
    3.3121   -2.6287    0.0000 C   0  0  0  0  0  0  0  0  0  0  0  0
    3.4557   -4.0544    0.0000 N   0  0  0  0  0  0  0  0  0  0  0  0
    4.8419   -4.3481    0.0000 N   0  0  0  0  0  0  0  0  0  0  0  0
    5.5599   -3.1221    0.0000 N   0  0  0  0  0  0  0  0  0  0  0  0
    2.0819   -1.9190    0.0000 S   0  0  0  0  0  0  0  0  0  0  0  0
    4.9084   -0.6692    0.0000 C   0  0  0  0  0  0  0  0  0  0  0  0
   -0.3722   -1.9080    0.0000 C   0  0  0  0  0  0  0  0  0  0  0  0
   -1.6087   -2.6067    0.0000 C   0  0  0  0  0  0  0  0  0  0  0  0
    0.8496   -2.6177    0.0000 C   0  0  0  0  0  0  0  0  0  0  0  0
   -0.3659   -0.4872    0.0000 O   0  0  0  0  0  0  0  0  0  0  0  0
    3.8626    0.2855    0.0000 C   0  0  0  0  0  0  0  0  0  0  0  0
    6.2728   -0.2378    0.0000 C   0  0  0  0  0  0  0  0  0  0  0  0
   -1.6151   -4.0316    0.0000 C   0  0  0  0  0  0  0  0  0  0  0  0
   -2.8472   -1.8969    0.0000 C   0  0  0  0  0  0  0  0  0  0  0  0
   -4.0817   -4.0206    0.0000 C   0  0  0  0  0  0  0  0  0  0  0  0
   -4.0754   -2.5956    0.0000 C   0  0  0  0  0  0  0  0  0  0  0  0
   -2.8600   -4.7469    0.0000 C   0  0  0  0  0  0  0  0  0  0  0  0
    4.1605    1.6717    0.0000 C   0  0  0  0  0  0  0  0  0  0  0  0
    6.5666    1.1568    0.0000 C   0  0  0  0  0  0  0  0  0  0  0  0
    5.5208    2.1115    0.0000 C   0  0  0  0  0  0  0  0  0  0  0  0
   -5.3150   -4.7359    0.0000 O   0  0  0  0  0  0  0  0  0  0  0  0
    5.8187    3.4976    0.0000 C   0  0  0  0  0  0  0  0  0  0  0  0
  2  1  1  0  0  0  0
  3  2  2  0  0  0  0
  4  5  2  0  0  0  0
  5  1  1  0  0  0  0
  6  2  1  0  0  0  0
  7  1  1  0  0  0  0
  8 10  1  0  0  0  0
  9  8  1  0  0  0  0
 10  6  1  0  0  0  0
 11  8  2  0  0  0  0
 12  7  1  0  0  0  0
 13  7  2  0  0  0  0
 14  9  1  0  0  0  0
 15  9  2  0  0  0  0
 16 17  2  0  0  0  0
 17 15  1  0  0  0  0
 18 14  2  0  0  0  0
 19 12  2  0  0  0  0
 20 13  1  0  0  0  0
 21 20  2  0  0  0  0
 22 16  1  0  0  0  0
 23 21  1  0  0  0  0
  3  4  1  0  0  0  0
 21 19  1  0  0  0  0
 18 16  1  0  0  0  0
M  END
> <#>
1323

> <PLATE>
LAT017

> <ROW>
C

> <COL>
7

> <COORD>
C07

> <LATID>
LAT017C07

> <Supplier>
Chembridge

> <Suplier_CAT#>
7112602

> <Name>
Novel

> <Concentration_(mM)>
2.5

> <IC50_(µM)>
inactive

> <Yeast_Active?>
-

> <Pubchem_CID>
578393

$$$$
