
  -ISIS-  08130814242D

 19 20  0  0  0  0  0  0  0  0999 V2000
   -0.9625   -1.5167    0.0000 C   0  0  0  0  0  0  0  0  0  0  0  0
   -0.9625   -0.2375    0.0000 C   0  0  0  0  0  0  0  0  0  0  0  0
    0.1542   -2.1500    0.0000 C   0  0  0  0  0  0  0  0  0  0  0  0
   -2.0500    0.3958    0.0000 C   0  0  0  0  0  0  0  0  0  0  0  0
   -2.0500   -2.1500    0.0000 C   0  0  0  0  0  0  0  0  0  0  0  0
    1.2667   -0.2375    0.0000 O   0  0  0  0  0  0  0  0  0  0  0  0
    2.3667    0.3958    0.0000 C   0  0  0  0  0  0  0  0  0  0  0  0
    1.2667   -1.5167    0.0000 C   0  0  0  0  0  0  0  0  0  0  0  0
    3.4542   -0.2542    0.0000 C   0  0  0  0  0  0  0  0  0  0  0  0
    0.1542   -3.4292    0.0000 O   0  0  0  0  0  0  0  0  0  0  0  0
   -3.1708   -0.2542    0.0000 C   0  0  0  0  0  0  0  0  0  0  0  0
    0.1542    0.4125    0.0000 O   0  0  0  0  0  0  0  0  0  0  0  0
   -3.1708   -1.5000    0.0000 C   0  0  0  0  0  0  0  0  0  0  0  0
    3.4542   -1.5292    0.0000 Cl  0  0  0  0  0  0  0  0  0  0  0  0
   -4.3000    0.3833    0.0000 O   0  0  0  0  0  0  0  0  0  0  0  0
    2.3667    1.6625    0.0000 C   0  0  0  0  0  0  0  0  0  0  0  0
    4.5542    0.3958    0.0000 C   0  0  0  0  0  0  0  0  0  0  0  0
    4.5542    1.6833    0.0000 C   0  0  0  0  0  0  0  0  0  0  0  0
    3.4542    2.2958    0.0000 C   0  0  0  0  0  0  0  0  0  0  0  0
  2  1  1  0  0  0  0
  3  1  1  0  0  0  0
  4  2  2  0  0  0  0
  5  1  2  0  0  0  0
  6  8  1  0  0  0  0
  7  6  1  0  0  0  0
  8  3  1  0  0  0  0
  9  7  2  0  0  0  0
 10  3  2  0  0  0  0
 11 13  2  0  0  0  0
 12  2  1  0  0  0  0
 13  5  1  0  0  0  0
 14  9  1  0  0  0  0
 15 11  1  0  0  0  0
 16  7  1  0  0  0  0
 17  9  1  0  0  0  0
 18 19  1  0  0  0  0
 19 16  2  0  0  0  0
 11  4  1  0  0  0  0
 17 18  2  0  0  0  0
M  END
> <#>
1354

> <PLATE>
LAT017

> <ROW>
B

> <COL>
11

> <COORD>
B11

> <LATID>
LAT017B11

> <Supplier>
Chembridge

> <Suplier_CAT#>
7593961

> <Name>
Novel

> <Concentration_(mM)>
2.5

> <IC50_(µM)>
96

> <Yeast_Active?>
-

> <Pubchem_CID>
724522

$$$$
