
  -ISIS-  08130814242D

 11 10  0  0  0  0  0  0  0  0999 V2000
   -1.0757    0.9538    0.0000 C   0  0  0  0  0  0  0  0  0  0  0  0
   -3.2408    0.9552    0.0000 N   0  0  0  0  0  0  0  0  0  0  0  0
   -2.1587    0.3295    0.0000 C   0  0  1  0  0  0  0  0  0  0  0  0
   -2.1595   -0.9205    0.0000 C   0  0  0  0  0  0  0  0  0  0  0  0
   -1.0773   -1.5462    0.0000 C   0  0  0  0  0  0  0  0  0  0  0  0
   -1.0781   -2.7962    0.0000 C   0  0  0  0  0  0  0  0  0  0  0  0
    0.0040   -3.4218    0.0000 O   0  0  0  0  0  0  0  0  0  0  0  0
   -2.1611   -3.4205    0.0000 O   0  0  0  0  0  0  0  0  0  0  0  0
   -1.0749    2.2038    0.0000 O   0  0  0  0  0  0  0  0  0  0  0  0
    0.0064    0.3282    0.0000 O   0  0  0  0  0  0  0  0  0  0  0  0
   -4.3237    0.3309    0.0000 C   0  0  0  0  0  0  0  0  0  0  0  0
  3  2  1  6  0  0  0
  1  3  1  0  0  0  0
  3  4  1  0  0  0  0
  4  5  1  0  0  0  0
  5  6  1  0  0  0  0
  6  7  2  0  0  0  0
  6  8  1  0  0  0  0
  1  9  2  0  0  0  0
  1 10  1  0  0  0  0
  2 11  1  0  0  0  0
M  END
> <#>
387

> <PLATE>
LAT005

> <ROW>
C

> <COL>
10

> <COORD>
C10

> <LATID>
LAT005C10

> <Supplier>
Sigma

> <Suplier_CAT#>
M-4017

> <Name>
N-Methyl-L-Glutamic Acid

> <Concentration_(mM)>
2.5

> <IC50_(µM)>
inactive

> <Yeast_Active?>
-

> <Pubchem_CID>
268779

$$$$
