
  -ISIS-  08130814242D

 21 23  0  0  0  0  0  0  0  0999 V2000
    7.5125    1.5958    0.0000 C   0  0  0  0  0  0  0  0  0  0  0  0
    8.2417    1.4375    0.0000 C   0  0  0  0  0  0  0  0  0  0  0  0
    7.2042    2.2833    0.0000 C   0  0  0  0  0  0  0  0  0  0  0  0
    6.4625    2.2083    0.0000 N   0  0  0  0  0  0  0  0  0  0  0  0
    6.9542    1.0958    0.0000 C   0  0  0  0  0  0  0  0  0  0  0  0
    8.7500    1.9958    0.0000 C   0  0  0  0  0  0  0  0  0  0  0  0
    6.3042    1.4708    0.0000 C   0  0  0  0  0  0  0  0  0  0  0  0
    9.4792    1.8458    0.0000 N   0  0  0  0  0  0  0  0  0  0  0  0
    8.4792    0.7250    0.0000 O   0  0  0  0  0  0  0  0  0  0  0  0
   10.9500    1.5333    0.0000 N   0  0  0  0  0  0  0  0  0  0  0  0
    8.5167    2.7083    0.0000 O   0  0  0  0  0  0  0  0  0  0  0  0
    9.9792    2.3958    0.0000 C   0  0  0  0  0  0  0  0  0  0  0  0
   10.7167    2.2458    0.0000 C   0  0  0  0  0  0  0  0  0  0  0  0
    6.9542    0.3458    0.0000 C   0  0  0  0  0  0  0  0  0  0  0  0
   11.6792    1.3708    0.0000 C   0  0  0  0  0  0  0  0  0  0  0  0
    5.6542    1.0958    0.0000 C   0  0  0  0  0  0  0  0  0  0  0  0
   11.2167    2.8000    0.0000 C   0  0  0  0  0  0  0  0  0  0  0  0
    6.3042   -0.0292    0.0000 C   0  0  0  0  0  0  0  0  0  0  0  0
   12.1792    1.9333    0.0000 C   0  0  0  0  0  0  0  0  0  0  0  0
    5.6542    0.3458    0.0000 C   0  0  0  0  0  0  0  0  0  0  0  0
   11.9542    2.6458    0.0000 C   0  0  0  0  0  0  0  0  0  0  0  0
  2  1  1  0  0  0  0
  3  1  2  0  0  0  0
  4  3  1  0  0  0  0
  5  1  1  0  0  0  0
  6  2  1  0  0  0  0
  7  5  1  0  0  0  0
  8  6  1  0  0  0  0
  9  2  2  0  0  0  0
 10 13  2  0  0  0  0
 11  6  2  0  0  0  0
 12  8  1  0  0  0  0
 13 12  1  0  0  0  0
 14  5  2  0  0  0  0
 15 10  1  0  0  0  0
 16  7  2  0  0  0  0
 17 13  1  0  0  0  0
 18 14  1  0  0  0  0
 19 21  1  0  0  0  0
 20 18  2  0  0  0  0
 21 17  2  0  0  0  0
  7  4  1  0  0  0  0
 16 20  1  0  0  0  0
 19 15  2  0  0  0  0
M  END
> <#>
1452

> <PLATE>
LAT019

> <ROW>
D

> <COL>
3

> <COORD>
D03

> <LATID>
LAT019D03

> <Supplier>
Chembridge

> <Suplier_CAT#>
9025557

> <Name>
Novel

> <Concentration_(mM)>
2.5

> <IC50_(µM)>
>100

> <Yeast_Active?>
-

> <Pubchem_CID>
NULL

$$$$
