
  -ISIS-  08130814242D

 25 27  0  0  0  0  0  0  0  0999 V2000
    3.8917   -0.4875    0.0000 C   0  0  0  0  0  0  0  0  0  0  0  0
    3.8917   -1.3167    0.0000 C   0  0  0  0  0  0  0  0  0  0  0  0
    1.0292   -2.1417    0.0000 C   0  0  0  0  0  0  0  0  0  0  0  0
    0.3167   -1.7292    0.0000 C   0  0  0  0  0  0  0  0  0  0  0  0
   -1.1083   -0.9042    0.0000 C   0  0  0  0  0  0  0  0  0  0  0  0
    4.6875   -1.5667    0.0000 O   0  0  0  0  0  0  0  0  0  0  0  0
   -1.1083   -1.7375    0.0000 C   0  0  0  0  0  0  0  0  0  0  0  0
   -0.3958   -0.4917    0.0000 C   0  0  0  0  0  0  0  0  0  0  0  0
    4.6792   -0.2167    0.0000 C   0  0  0  0  0  0  0  0  0  0  0  0
    0.3250   -0.9042    0.0000 C   0  0  0  0  0  0  0  0  0  0  0  0
   -0.3875   -2.1417    0.0000 C   0  0  0  0  0  0  0  0  0  0  0  0
    3.1750   -1.7292    0.0000 C   0  0  0  0  0  0  0  0  0  0  0  0
    1.7417   -1.7292    0.0000 O   0  0  0  0  0  0  0  0  0  0  0  0
    3.1750   -0.0750    0.0000 C   0  0  0  0  0  0  0  0  0  0  0  0
    2.4625   -1.3167    0.0000 C   0  0  0  0  0  0  0  0  0  0  0  0
    5.1667   -0.8917    0.0000 C   0  0  0  0  0  0  0  0  0  0  0  0
    1.0292   -2.9667    0.0000 O   0  0  0  0  0  0  0  0  0  0  0  0
    4.9292    0.5625    0.0000 O   0  0  0  0  0  0  0  0  0  0  0  0
    2.4625   -0.4875    0.0000 C   0  0  0  0  0  0  0  0  0  0  0  0
   -1.8208   -0.4917    0.0000 O   0  0  0  0  0  0  0  0  0  0  0  0
   -1.8208   -2.1500    0.0000 O   0  0  0  0  0  0  0  0  0  0  0  0
   -0.3958    0.3333    0.0000 O   0  0  0  0  0  0  0  0  0  0  0  0
   -1.8208    0.3333    0.0000 C   0  0  0  0  0  0  0  0  0  0  0  0
   -2.5333   -1.7417    0.0000 C   0  0  0  0  0  0  0  0  0  0  0  0
    0.3250    0.7458    0.0000 C   0  0  0  0  0  0  0  0  0  0  0  0
  2  1  1  0  0  0  0
  3 13  1  0  0  0  0
  4  3  1  0  0  0  0
  5  7  1  0  0  0  0
  6  2  1  0  0  0  0
  7 11  2  0  0  0  0
  8 10  1  0  0  0  0
  9  1  1  0  0  0  0
 10  4  2  0  0  0  0
 11  4  1  0  0  0  0
 12  2  2  0  0  0  0
 13 15  1  0  0  0  0
 14  1  2  0  0  0  0
 15 19  2  0  0  0  0
 16  9  1  0  0  0  0
 17  3  2  0  0  0  0
 18  9  2  0  0  0  0
 19 14  1  0  0  0  0
 20  5  1  0  0  0  0
 21  7  1  0  0  0  0
 22  8  1  0  0  0  0
 23 20  1  0  0  0  0
 24 21  1  0  0  0  0
 25 22  1  0  0  0  0
  6 16  1  0  0  0  0
 12 15  1  0  0  0  0
  8  5  2  0  0  0  0
M  END
> <#>
1352

> <PLATE>
LAT017

> <ROW>
H

> <COL>
10

> <COORD>
H10

> <LATID>
LAT017H10

> <Supplier>
Chembridge

> <Suplier_CAT#>
7584572

> <Name>
Novel

> <Concentration_(mM)>
2.5

> <IC50_(µM)>
inactive

> <Yeast_Active?>
-

> <Pubchem_CID>
732049

$$$$
