
  -ISIS-  08130814242D

 21 23  0  0  0  0  0  0  0  0999 V2000
    1.4542   -1.1875    0.0000 C   0  0  3  0  0  0  0  0  0  0  0  0
    1.8042   -1.8500    0.0000 C   0  0  0  0  0  0  0  0  0  0  0  0
    1.2792   -2.3875    0.0000 N   0  0  0  0  0  0  0  0  0  0  0  0
    2.3000   -0.6167    0.0000 C   0  0  0  0  0  0  0  0  0  0  0  0
    0.7167   -1.3167    0.0000 C   0  0  0  0  0  0  0  0  0  0  0  0
    3.0167   -0.9917    0.0000 C   0  0  0  0  0  0  0  0  0  0  0  0
    0.6125   -2.0542    0.0000 C   0  0  0  0  0  0  0  0  0  0  0  0
    3.6542   -0.5875    0.0000 C   0  0  0  0  0  0  0  0  0  0  0  0
    2.5500   -1.9542    0.0000 O   0  0  0  0  0  0  0  0  0  0  0  0
    3.6167    0.1625    0.0000 C   0  0  0  0  0  0  0  0  0  0  0  0
    3.0500   -1.6167    0.0000 O   0  0  0  0  0  0  0  0  0  0  0  0
    1.2167   -0.3292    0.0000 O   0  0  0  0  0  0  0  0  0  0  0  0
    2.9542    0.5083    0.0000 O   0  0  0  0  0  0  0  0  0  0  0  0
    0.1292   -0.8500    0.0000 C   0  0  0  0  0  0  0  0  0  0  0  0
    4.3167   -0.9292    0.0000 C   0  0  0  0  0  0  0  0  0  0  0  0
   -0.0833   -2.3375    0.0000 C   0  0  0  0  0  0  0  0  0  0  0  0
    4.2500    0.5708    0.0000 C   0  0  0  0  0  0  0  0  0  0  0  0
   -0.5708   -1.1292    0.0000 C   0  0  0  0  0  0  0  0  0  0  0  0
    4.9500   -0.5292    0.0000 C   0  0  0  0  0  0  0  0  0  0  0  0
   -0.6750   -1.8750    0.0000 C   0  0  0  0  0  0  0  0  0  0  0  0
    4.9167    0.2208    0.0000 C   0  0  0  0  0  0  0  0  0  0  0  0
  2  1  1  0  0  0  0
  3  2  1  0  0  0  0
  4  1  1  0  0  0  0
  5  1  1  0  0  0  0
  6  4  1  0  0  0  0
  7  5  2  0  0  0  0
  8  6  1  0  0  0  0
  9  2  2  0  0  0  0
 10  8  2  0  0  0  0
 11  6  2  0  0  0  0
 12  1  1  0  0  0  0
 13 10  1  0  0  0  0
 14  5  1  0  0  0  0
 15  8  1  0  0  0  0
 16  7  1  0  0  0  0
 17 10  1  0  0  0  0
 18 14  2  0  0  0  0
 19 15  2  0  0  0  0
 20 18  1  0  0  0  0
 21 19  1  0  0  0  0
  3  7  1  0  0  0  0
 16 20  2  0  0  0  0
 17 21  2  0  0  0  0
M  END
> <#>
1257

> <PLATE>
LAT016

> <ROW>
A

> <COL>
9

> <COORD>
A09

> <LATID>
LAT016A09

> <Supplier>
Chembridge

> <Suplier_CAT#>
6433380

> <Name>
Novel

> <Concentration_(mM)>
2.5

> <IC50_(µM)>
inactive

> <Yeast_Active?>
-

> <Pubchem_CID>
359743

$$$$
