
  -ISIS-  08130814242D

 27 29  0  0  0  0  0  0  0  0999 V2000
   -1.2958   -7.8292    0.0000 C   0  0  0  0  0  0  0  0  0  0  0  0
   -3.4458   -6.5875    0.0000 N   0  0  3  0  0  0  0  0  0  0  0  0
   -1.7958  -10.3042    0.0000 N   0  0  0  0  0  0  0  0  0  0  0  0
    3.0542    7.1375    0.0000 C   0  0  0  0  0  0  0  0  0  0  0  0
    5.2042    3.4208    0.0000 C   0  0  0  0  0  0  0  0  0  0  0  0
    0.8500    8.4542    0.0000 C   0  0  0  0  0  0  0  0  0  0  0  0
    0.9042   -6.5875    0.0000 S   0  0  0  0  0  0  0  0  0  0  0  0
    3.0542    4.6542    0.0000 C   0  0  0  0  0  0  0  0  0  0  0  0
   -4.2708  -10.5542    0.0000 C   0  0  0  0  0  0  0  0  0  0  0  0
    3.0542   -2.8542    0.0000 C   0  0  0  0  0  0  0  0  0  0  0  0
   -5.2708   -8.3292    0.0000 C   0  0  0  0  0  0  0  0  0  0  0  0
    7.3542    4.6542    0.0000 C   0  0  0  0  0  0  0  0  0  0  0  0
    3.0542   -0.3792    0.0000 N   0  0  0  0  0  0  0  0  0  0  0  0
    5.2042    0.8500    0.0000 C   0  0  0  0  0  0  0  0  0  0  0  0
    5.2042    8.3792    0.0000 C   0  0  0  0  0  0  0  0  0  0  0  0
   -1.4000    7.1375    0.0000 O   0  0  0  0  0  0  0  0  0  0  0  0
    0.8500   10.9417    0.0000 C   0  0  0  0  0  0  0  0  0  0  0  0
    5.2042   -4.1042    0.0000 O   0  0  0  0  0  0  0  0  0  0  0  0
    7.3542    7.1375    0.0000 C   0  0  0  0  0  0  0  0  0  0  0  0
    0.9042   -4.1042    0.0000 C   0  0  0  0  0  0  0  0  0  0  0  0
    9.5667    3.3333    0.0000 O   0  0  0  0  0  0  0  0  0  0  0  0
   -3.7208   -4.1042    0.0000 C   0  0  0  0  0  0  0  0  0  0  0  0
   -1.2958   12.1875    0.0000 C   0  0  0  0  0  0  0  0  0  0  0  0
    3.0000   12.1875    0.0000 C   0  0  0  0  0  0  0  0  0  0  0  0
    3.0000   14.7500    0.0000 C   0  0  0  0  0  0  0  0  0  0  0  0
   -1.2958   14.7500    0.0000 C   0  0  0  0  0  0  0  0  0  0  0  0
    0.8500   16.0000    0.0000 C   0  0  0  0  0  0  0  0  0  0  0  0
  2  1  1  0  0  0  0
  3  1  2  0  0  0  0
  4  8  2  0  0  0  0
  5 14  1  0  0  0  0
  6  4  1  0  0  0  0
  7  1  1  0  0  0  0
  8  5  1  0  0  0  0
  9  3  1  0  0  0  0
 10 20  1  0  0  0  0
 11  2  1  0  0  0  0
 12  5  2  0  0  0  0
 13 10  1  0  0  0  0
 14 13  1  0  0  0  0
 15 19  2  0  0  0  0
 16  6  2  0  0  0  0
 17  6  1  0  0  0  0
 18 10  2  0  0  0  0
 19 12  1  0  0  0  0
 20  7  1  0  0  0  0
 21 12  1  0  0  0  0
 22  2  1  0  0  0  0
 23 17  1  0  0  0  0
 24 17  2  0  0  0  0
 25 24  1  0  0  0  0
 26 23  2  0  0  0  0
 27 25  2  0  0  0  0
  9 11  2  0  0  0  0
  4 15  1  0  0  0  0
 27 26  1  0  0  0  0
M  END
> <#>
1366

> <PLATE>
LAT018

> <ROW>
F

> <COL>
2

> <COORD>
F02

> <LATID>
LAT018F02

> <Supplier>
Chembridge

> <Suplier_CAT#>
7114505

> <Name>
Novel

> <Concentration_(mM)>
2.5

> <IC50_(µM)>
inactive

> <Yeast_Active?>
-

> <Pubchem_CID>
1075669

$$$$
