
  -ISIS-  08130814242D

 27 29  0  0  0  0  0  0  0  0999 V2000
    3.0042    1.9250    0.0000 C   0  0  0  0  0  0  0  0  0  0  0  0
    2.3167    2.2333    0.0000 C   0  0  0  0  0  0  0  0  0  0  0  0
    2.9292    1.1833    0.0000 S   0  0  0  0  0  0  0  0  0  0  0  0
    1.8167    1.6708    0.0000 C   0  0  0  0  0  0  0  0  0  0  0  0
    3.6542    2.3000    0.0000 N   0  0  0  0  0  0  0  0  0  0  0  0
    2.1917    1.0208    0.0000 C   0  0  0  0  0  0  0  0  0  0  0  0
    4.3042    1.9250    0.0000 C   0  0  0  0  0  0  0  0  0  0  0  0
    2.1667    2.9625    0.0000 C   0  0  0  0  0  0  0  0  0  0  0  0
    4.9542    2.3000    0.0000 C   0  0  0  0  0  0  0  0  0  0  0  0
    5.6042    1.9250    0.0000 N   0  0  0  0  0  0  0  0  0  0  0  0
    4.3042    1.1750    0.0000 O   0  0  0  0  0  0  0  0  0  0  0  0
    6.9042    1.1750    0.0000 N   0  0  0  0  0  0  0  0  0  0  0  0
    2.7250    3.4625    0.0000 O   0  0  0  0  0  0  0  0  0  0  0  0
    4.9542    3.0500    0.0000 O   0  0  0  0  0  0  0  0  0  0  0  0
    6.2542    2.3000    0.0000 C   0  0  0  0  0  0  0  0  0  0  0  0
    6.9042    1.9250    0.0000 C   0  0  0  0  0  0  0  0  0  0  0  0
    1.4542    3.1958    0.0000 O   0  0  0  0  0  0  0  0  0  0  0  0
    1.0667    1.6708    0.0000 C   0  0  0  0  0  0  0  0  0  0  0  0
    1.8167    0.3708    0.0000 C   0  0  0  0  0  0  0  0  0  0  0  0
    7.5542    0.8000    0.0000 C   0  0  0  0  0  0  0  0  0  0  0  0
    1.3000    3.9333    0.0000 C   0  0  0  0  0  0  0  0  0  0  0  0
    7.5542    2.3000    0.0000 C   0  0  0  0  0  0  0  0  0  0  0  0
    0.6917    1.0208    0.0000 C   0  0  0  0  0  0  0  0  0  0  0  0
    1.0667    0.3708    0.0000 C   0  0  0  0  0  0  0  0  0  0  0  0
    0.5792    4.1542    0.0000 C   0  0  0  0  0  0  0  0  0  0  0  0
    8.2042    1.1750    0.0000 C   0  0  0  0  0  0  0  0  0  0  0  0
    8.2042    1.9250    0.0000 C   0  0  0  0  0  0  0  0  0  0  0  0
  2  1  2  0  0  0  0
  3  1  1  0  0  0  0
  4  2  1  0  0  0  0
  5  1  1  0  0  0  0
  6  3  1  0  0  0  0
  7  5  1  0  0  0  0
  8  2  1  0  0  0  0
  9  7  1  0  0  0  0
 10  9  1  0  0  0  0
 11  7  2  0  0  0  0
 12 16  1  0  0  0  0
 13  8  2  0  0  0  0
 14  9  2  0  0  0  0
 15 10  1  0  0  0  0
 16 15  1  0  0  0  0
 17  8  1  0  0  0  0
 18  4  1  0  0  0  0
 19  6  1  0  0  0  0
 20 12  2  0  0  0  0
 21 17  1  0  0  0  0
 22 16  2  0  0  0  0
 23 18  1  0  0  0  0
 24 19  1  0  0  0  0
 25 21  1  0  0  0  0
 26 27  2  0  0  0  0
 27 22  1  0  0  0  0
  4  6  2  0  0  0  0
 24 23  1  0  0  0  0
 26 20  1  0  0  0  0
M  END
> <#>
1451

> <PLATE>
LAT019

> <ROW>
C

> <COL>
3

> <COORD>
C03

> <LATID>
LAT019C03

> <Supplier>
Chembridge

> <Suplier_CAT#>
9007982

> <Name>
Novel

> <Concentration_(mM)>
2.5

> <IC50_(µM)>
>100

> <Yeast_Active?>
-

> <Pubchem_CID>
2992574

$$$$
