
  -ISIS-  08130814242D

 19 20  0  0  0  0  0  0  0  0999 V2000
   -2.3708    1.2458    0.0000 C   0  0  0  0  0  0  0  0  0  0  0  0
   -2.3708    0.2958    0.0000 C   0  0  0  0  0  0  0  0  0  0  0  0
   -1.5958    1.6958    0.0000 C   0  0  0  0  0  0  0  0  0  0  0  0
    2.2667    1.2125    0.0000 C   0  0  0  0  0  0  0  0  0  0  0  0
   -3.1708    1.6958    0.0000 C   0  0  3  0  0  0  0  0  0  0  0  0
   -1.5958   -0.1542    0.0000 C   0  0  0  0  0  0  0  0  0  0  0  0
   -0.7958    1.2458    0.0000 C   0  0  3  0  0  0  0  0  0  0  0  0
    0.8292    1.2458    0.0000 N   0  0  0  0  0  0  0  0  0  0  0  0
   -0.7958    0.2958    0.0000 C   0  0  3  0  0  0  0  0  0  0  0  0
    2.2875    0.4708    0.0000 S   0  0  0  0  0  0  0  0  0  0  0  0
    1.5292    1.7125    0.0000 N   0  0  0  0  0  0  0  0  0  0  0  0
    0.0292    1.6958    0.0000 C   0  0  0  0  0  0  0  0  0  0  0  0
    2.9875    1.7625    0.0000 N   0  0  0  0  0  0  0  0  0  0  0  0
   -3.1708   -0.1542    0.0000 C   0  0  0  0  0  0  0  0  0  0  0  0
   -3.9708    1.2458    0.0000 C   0  0  0  0  0  0  0  0  0  0  0  0
   -3.8708    2.2958    0.0000 C   0  0  0  0  0  0  0  0  0  0  0  0
   -2.5708    2.3958    0.0000 C   0  0  0  0  0  0  0  0  0  0  0  0
   -3.9708    0.2958    0.0000 C   0  0  0  0  0  0  0  0  0  0  0  0
    0.0292   -0.1542    0.0000 C   0  0  0  0  0  0  0  0  0  0  0  0
  2  1  2  0  0  0  0
  3  1  1  0  0  0  0
  4 11  1  0  0  0  0
  5  1  1  0  0  0  0
  6  2  1  0  0  0  0
  7  3  1  0  0  0  0
  8 12  2  0  0  0  0
  9  7  1  0  0  0  0
 10  4  2  0  0  0  0
 11  8  1  0  0  0  0
 12  7  1  0  0  0  0
 13  4  1  0  0  0  0
 14  2  1  0  0  0  0
 15  5  1  0  0  0  0
 16  5  1  0  0  0  0
 17  5  1  0  0  0  0
 18 15  1  0  0  0  0
 19  9  1  0  0  0  0
 14 18  1  0  0  0  0
  9  6  1  0  0  0  0
M  END
> <#>
816

> <PLATE>
LAT011

> <ROW>
H

> <COL>
3

> <COORD>
H03

> <LATID>
LAT011H03

> <Supplier>
Chembridge

> <Suplier_CAT#>
5660959

> <Name>
Novel

> <Sec_Name>
206_B02

> <Concentration_(mM)>
2.5

> <IC50_(µM)>
26

> <Yeast_Active?>
+

> <Pubchem_CID>
2859181

$$$$
