
  -ISIS-  08130814242D

 23 25  0  0  0  0  0  0  0  0999 V2000
    3.6292    0.9708    0.0000 C   0  0  0  0  0  0  0  0  0  0  0  0
    2.9417    0.6625    0.0000 N   0  0  0  0  0  0  0  0  0  0  0  0
    3.5542    1.7208    0.0000 N   0  0  0  0  0  0  0  0  0  0  0  0
    2.8167    1.8708    0.0000 C   0  0  0  0  0  0  0  0  0  0  0  0
    2.4417    1.2208    0.0000 C   0  0  0  0  0  0  0  0  0  0  0  0
    6.2292    0.9708    0.0000 C   0  0  0  0  0  0  0  0  0  0  0  0
    2.4417    2.5208    0.0000 C   0  0  0  0  0  0  0  0  0  0  0  0
    6.8792    0.5958    0.0000 C   0  0  0  0  0  0  0  0  0  0  0  0
    7.5292    0.9708    0.0000 C   0  0  0  0  0  0  0  0  0  0  0  0
    4.2792    0.5958    0.0000 S   0  0  0  0  0  0  0  0  0  0  0  0
    5.5792    0.5958    0.0000 C   0  0  0  0  0  0  0  0  0  0  0  0
    7.5292    1.7208    0.0000 C   0  0  0  0  0  0  0  0  0  0  0  0
    4.9292    0.9708    0.0000 C   0  0  0  0  0  0  0  0  0  0  0  0
    6.2292    1.7208    0.0000 C   0  0  0  0  0  0  0  0  0  0  0  0
    1.6917    1.2208    0.0000 C   0  0  0  0  0  0  0  0  0  0  0  0
    5.5792   -0.1542    0.0000 O   0  0  0  0  0  0  0  0  0  0  0  0
    6.8792    2.0958    0.0000 C   0  0  0  0  0  0  0  0  0  0  0  0
    1.6917    2.5208    0.0000 C   0  0  0  0  0  0  0  0  0  0  0  0
    8.1792    0.5958    0.0000 O   0  0  0  0  0  0  0  0  0  0  0  0
    1.3167    1.8708    0.0000 C   0  0  0  0  0  0  0  0  0  0  0  0
    8.1792    2.0958    0.0000 O   0  0  0  0  0  0  0  0  0  0  0  0
    1.3167    3.1708    0.0000 O   0  0  0  0  0  0  0  0  0  0  0  0
    0.5667    3.1708    0.0000 C   0  0  0  0  0  0  0  0  0  0  0  0
  2  1  2  0  0  0  0
  3  1  1  0  0  0  0
  4  3  1  0  0  0  0
  5  2  1  0  0  0  0
  6 11  1  0  0  0  0
  7  4  2  0  0  0  0
  8  6  1  0  0  0  0
  9  8  2  0  0  0  0
 10  1  1  0  0  0  0
 11 13  1  0  0  0  0
 12 17  2  0  0  0  0
 13 10  1  0  0  0  0
 14  6  2  0  0  0  0
 15  5  2  0  0  0  0
 16 11  2  0  0  0  0
 17 14  1  0  0  0  0
 18  7  1  0  0  0  0
 19  9  1  0  0  0  0
 20 15  1  0  0  0  0
 21 12  1  0  0  0  0
 22 18  1  0  0  0  0
 23 22  1  0  0  0  0
  5  4  1  0  0  0  0
 20 18  2  0  0  0  0
 12  9  1  0  0  0  0
M  END
> <#>
1191

> <PLATE>
LAT015

> <ROW>
G

> <COL>
10

> <COORD>
G10

> <LATID>
LAT015G10

> <Supplier>
Chembridge

> <Suplier_CAT#>
7957352

> <Name>
Novel

> <Concentration_(mM)>
2.5

> <IC50_(µM)>
>100

> <Yeast_Active?>
-

> <Pubchem_CID>
NULL

$$$$
