
  -ISIS-  08130814242D

 19 20  0  0  0  0  0  0  0  0999 V2000
   -1.4625   -0.0917    0.0000 C   0  0  0  0  0  0  0  0  0  0  0  0
   -2.5625   -0.0792    0.0000 C   0  0  0  0  0  0  0  0  0  0  0  0
   -3.1125    0.8708    0.0000 C   0  0  0  0  0  0  0  0  0  0  0  0
   -1.0833   -1.1167    0.0000 C   0  0  0  0  0  0  0  0  0  0  0  0
   -0.9125    0.8500    0.0000 C   0  0  0  0  0  0  0  0  0  0  0  0
   -2.5500    1.8208    0.0000 C   0  0  0  0  0  0  0  0  0  0  0  0
   -1.4625    1.8208    0.0000 C   0  0  0  0  0  0  0  0  0  0  0  0
   -1.8458   -1.9000    0.0000 O   0  0  0  0  0  0  0  0  0  0  0  0
   -0.0125   -1.4292    0.0000 C   0  0  3  0  0  0  0  0  0  0  0  0
   -3.1125   -1.0792    0.0000 O   0  0  0  0  0  0  0  0  0  0  0  0
   -4.2333    0.8833    0.0000 O   0  0  0  0  0  0  0  0  0  0  0  0
   -3.1000    2.7958    0.0000 O   0  0  0  0  0  0  0  0  0  0  0  0
    0.1792    0.9958    0.0000 C   0  0  0  0  0  0  0  0  0  0  0  0
    0.1542   -2.5500    0.0000 O   0  0  0  0  0  0  0  0  0  0  0  0
    1.0000    0.2500    0.0000 C   0  0  0  0  0  0  0  0  0  0  0  0
    0.9042   -0.8292    0.0000 C   0  0  0  0  0  0  0  0  0  0  0  0
   -4.8000   -0.0792    0.0000 C   0  0  0  0  0  0  0  0  0  0  0  0
   -2.5458    3.7208    0.0000 C   0  0  0  0  0  0  0  0  0  0  0  0
    1.1875   -2.9500    0.0000 C   0  0  0  0  0  0  0  0  0  0  0  0
  2  1  1  0  0  0  0
  3  2  2  0  0  0  0
  4  1  1  0  0  0  0
  5  1  2  0  0  0  0
  6  7  2  0  0  0  0
  7  5  1  0  0  0  0
  8  4  2  0  0  0  0
  9  4  1  0  0  0  0
 10  2  1  0  0  0  0
 11  3  1  0  0  0  0
 12  6  1  0  0  0  0
 13  5  1  0  0  0  0
 14  9  1  0  0  0  0
 15 13  1  0  0  0  0
 16  9  1  0  0  0  0
 17 11  1  0  0  0  0
 18 12  1  0  0  0  0
 19 14  1  0  0  0  0
  6  3  1  0  0  0  0
 16 15  1  0  0  0  0
M  END
> <#>
1126

> <PLATE>
LAT015

> <ROW>
F

> <COL>
2

> <COORD>
F02

> <LATID>
LAT015F02

> <Supplier>
Chembridge

> <Suplier_CAT#>
5217475

> <Name>
Novel

> <Concentration_(mM)>
2.5

> <IC50_(µM)>
>100

> <Yeast_Active?>
-

> <Pubchem_CID>
787587

$$$$
