
  -ISIS-  08130814242D

 24 26  0  0  0  0  0  0  0  0999 V2000
   -1.3708    1.0458    0.0000 C   0  0  0  0  0  0  0  0  0  0  0  0
   -1.3708    1.9208    0.0000 C   0  0  0  0  0  0  0  0  0  0  0  0
   -2.1333    0.6000    0.0000 C   0  0  0  0  0  0  0  0  0  0  0  0
   -2.8958    1.9208    0.0000 C   0  0  3  0  0  0  0  0  0  0  0  0
   -2.1333    2.3625    0.0000 C   0  0  0  0  0  0  0  0  0  0  0  0
   -2.8958    1.0458    0.0000 C   0  0  0  0  0  0  0  0  0  0  0  0
   -0.5958    0.6000    0.0000 C   0  0  0  0  0  0  0  0  0  0  0  0
   -2.1333   -0.2792    0.0000 O   0  0  0  0  0  0  0  0  0  0  0  0
   -0.5958    2.3833    0.0000 O   0  0  0  0  0  0  0  0  0  0  0  0
    0.1667    1.0458    0.0000 N   0  0  0  0  0  0  0  0  0  0  0  0
   -3.6500    2.3625    0.0000 C   0  0  0  0  0  0  0  0  0  0  0  0
    3.2042    1.9208    0.0000 C   0  0  0  0  0  0  0  0  0  0  0  0
    1.6875    1.0458    0.0000 C   0  0  0  0  0  0  0  0  0  0  0  0
    3.9875    2.3625    0.0000 Cl  0  0  0  0  0  0  0  0  0  0  0  0
    2.4417    2.3625    0.0000 C   0  0  0  0  0  0  0  0  0  0  0  0
    3.2042    1.0458    0.0000 C   0  0  0  0  0  0  0  0  0  0  0  0
    1.6875    1.9208    0.0000 C   0  0  0  0  0  0  0  0  0  0  0  0
    2.4417    0.6000    0.0000 C   0  0  0  0  0  0  0  0  0  0  0  0
    0.9292    0.6000    0.0000 C   0  0  0  0  0  0  0  0  0  0  0  0
   -4.4125    1.9208    0.0000 C   0  0  0  0  0  0  0  0  0  0  0  0
   -3.6500    3.2458    0.0000 C   0  0  0  0  0  0  0  0  0  0  0  0
   -4.4125    3.6833    0.0000 C   0  0  0  0  0  0  0  0  0  0  0  0
   -5.1708    2.3625    0.0000 C   0  0  0  0  0  0  0  0  0  0  0  0
   -5.1708    3.2458    0.0000 C   0  0  0  0  0  0  0  0  0  0  0  0
  2  1  1  0  0  0  0
  3  1  1  0  0  0  0
  4  6  1  0  0  0  0
  5  2  1  0  0  0  0
  6  3  1  0  0  0  0
  7  1  2  0  0  0  0
  8  3  2  0  0  0  0
  9  2  2  0  0  0  0
 10  7  1  0  0  0  0
 11  4  1  0  0  0  0
 12 16  1  0  0  0  0
 13 19  1  0  0  0  0
 14 12  1  0  0  0  0
 15 17  1  0  0  0  0
 16 18  2  0  0  0  0
 17 13  2  0  0  0  0
 18 13  1  0  0  0  0
 19 10  1  0  0  0  0
 20 11  2  0  0  0  0
 21 11  1  0  0  0  0
 22 21  2  0  0  0  0
 23 20  1  0  0  0  0
 24 22  1  0  0  0  0
  4  5  1  0  0  0  0
 15 12  2  0  0  0  0
 23 24  2  0  0  0  0
M  END
> <#>
1826

> <PLATE>
LAT023

> <ROW>
B

> <COL>
10

> <COORD>
B10

> <LATID>
LAT023B10

> <Supplier>
Chembridge

> <Suplier_CAT#>
5666621

> <Name>
Fenhexadione

> <Sec_Name>
209_H07

> <Concentration_(mM)>
2.5

> <IC50_(µM)>
2.4

> <Yeast_Active?>
-

> <Pubchem_CID>
867720

$$$$
