
  -ISIS-  08130814242D

 26 29  0  0  0  0  0  0  0  0999 V2000
    0.2042    0.0000    0.0000 N   0  0  0  0  0  0  0  0  0  0  0  0
    0.2042   -0.4792    0.0000 C   0  0  0  0  0  0  0  0  0  0  0  0
   -0.1708    0.1958    0.0000 C   0  0  0  0  0  0  0  0  0  0  0  0
   -0.1708   -0.6667    0.0000 N   0  0  0  0  0  0  0  0  0  0  0  0
   -0.5125   -0.0292    0.0000 C   0  0  0  0  0  0  0  0  0  0  0  0
   -0.5125   -0.4500    0.0000 C   0  0  0  0  0  0  0  0  0  0  0  0
   -0.5125    0.8000    0.0000 N   0  0  0  0  0  0  0  0  0  0  0  0
    0.5792   -0.6375    0.0000 C   0  0  0  0  0  0  0  0  0  0  0  0
   -0.1708    0.6125    0.0000 N   0  0  0  0  0  0  0  0  0  0  0  0
   -1.2125    2.0625    0.0000 N   0  0  0  0  0  0  0  0  0  0  0  0
   -0.5125    1.2208    0.0000 C   0  0  0  0  0  0  0  0  0  0  0  0
    0.7500   -0.9792    0.0000 C   0  0  0  0  0  0  0  0  0  0  0  0
    0.7667   -0.2792    0.0000 C   0  0  0  0  0  0  0  0  0  0  0  0
   -0.8708    1.4500    0.0000 C   0  0  0  0  0  0  0  0  0  0  0  0
    1.3875   -0.6667    0.0000 C   0  0  0  0  0  0  0  0  0  0  0  0
    1.1667   -1.0042    0.0000 C   0  0  0  0  0  0  0  0  0  0  0  0
    1.1875   -0.3042    0.0000 C   0  0  0  0  0  0  0  0  0  0  0  0
    1.8042   -0.6667    0.0000 Br  0  0  0  0  0  0  0  0  0  0  0  0
   -0.8708    0.1958    0.0000 C   0  0  0  0  0  0  0  0  0  0  0  0
   -0.8708    1.8708    0.0000 C   0  0  0  0  0  0  0  0  0  0  0  0
   -0.8708   -0.6667    0.0000 C   0  0  0  0  0  0  0  0  0  0  0  0
   -1.5708    1.8708    0.0000 C   0  0  0  0  0  0  0  0  0  0  0  0
   -1.2125    1.2208    0.0000 C   0  0  0  0  0  0  0  0  0  0  0  0
   -1.5708    1.4208    0.0000 C   0  0  0  0  0  0  0  0  0  0  0  0
   -1.2333    0.0000    0.0000 C   0  0  0  0  0  0  0  0  0  0  0  0
   -1.2333   -0.4792    0.0000 C   0  0  0  0  0  0  0  0  0  0  0  0
  2  1  1  0  0  0  0
  3  1  2  0  0  0  0
  4  2  2  0  0  0  0
  5  3  1  0  0  0  0
  6  5  2  0  0  0  0
  7  9  1  0  0  0  0
  8  2  1  0  0  0  0
  9  3  1  0  0  0  0
 10 20  2  0  0  0  0
 11  7  2  0  0  0  0
 12  8  2  0  0  0  0
 13  8  1  0  0  0  0
 14 11  1  0  0  0  0
 15 17  1  0  0  0  0
 16 12  1  0  0  0  0
 17 13  2  0  0  0  0
 18 15  1  0  0  0  0
 19  5  1  0  0  0  0
 20 14  1  0  0  0  0
 21  6  1  0  0  0  0
 22 24  2  0  0  0  0
 23 14  2  0  0  0  0
 24 23  1  0  0  0  0
 25 19  2  0  0  0  0
 26 25  1  0  0  0  0
  6  4  1  0  0  0  0
 16 15  2  0  0  0  0
 21 26  2  0  0  0  0
 22 10  1  0  0  0  0
M  END
> <#>
1690

> <PLATE>
LAT022

> <ROW>
B

> <COL>
3

> <COORD>
B03

> <LATID>
LAT022B03

> <Supplier>
Chembridge

> <Suplier_CAT#>
5749590

> <Name>
Novel

> <Concentration_(mM)>
2.5

> <IC50_(µM)>
inactive

> <Yeast_Active?>
-

> <Pubchem_CID>
5725718

$$$$
