
  -ISIS-  08130814242D

 25 27  0  0  0  0  0  0  0  0999 V2000
    3.9667    0.8125    0.0000 N   0  0  0  0  0  0  0  0  0  0  0  0
    4.6792    1.0458    0.0000 C   0  0  0  0  0  0  0  0  0  0  0  0
    3.5250    1.4208    0.0000 C   0  0  0  0  0  0  0  0  0  0  0  0
    3.9667    2.0250    0.0000 N   0  0  0  0  0  0  0  0  0  0  0  0
    4.6792    1.7958    0.0000 O   0  0  0  0  0  0  0  0  0  0  0  0
    1.2750    2.7208    0.0000 C   0  0  3  0  0  0  0  0  0  0  0  0
    5.2792    0.6083    0.0000 C   0  0  0  0  0  0  0  0  0  0  0  0
    2.7750    1.4208    0.0000 C   0  0  0  0  0  0  0  0  0  0  0  0
    1.6500    2.0708    0.0000 C   0  0  0  0  0  0  0  0  0  0  0  0
    5.9667    0.9083    0.0000 N   0  0  0  0  0  0  0  0  0  0  0  0
    2.4000    2.0708    0.0000 C   0  0  0  0  0  0  0  0  0  0  0  0
    7.8667    0.3333    0.0000 N   0  0  0  0  0  0  0  0  0  0  0  0
    5.2042   -0.1417    0.0000 O   0  0  0  0  0  0  0  0  0  0  0  0
    0.5500    2.5250    0.0000 F   0  0  0  0  0  0  0  0  0  0  0  0
    1.9542    3.0333    0.0000 F   0  0  0  0  0  0  0  0  0  0  0  0
    1.0167    3.4208    0.0000 F   0  0  0  0  0  0  0  0  0  0  0  0
    6.5750    0.4708    0.0000 C   0  0  0  0  0  0  0  0  0  0  0  0
    7.2625    0.7708    0.0000 C   0  0  0  0  0  0  0  0  0  0  0  0
    1.2750    1.4208    0.0000 C   0  0  0  0  0  0  0  0  0  0  0  0
    2.4000    0.7708    0.0000 C   0  0  0  0  0  0  0  0  0  0  0  0
    1.6500    0.7708    0.0000 C   0  0  0  0  0  0  0  0  0  0  0  0
    8.5542    0.6375    0.0000 C   0  0  0  0  0  0  0  0  0  0  0  0
    7.3417    1.5208    0.0000 C   0  0  0  0  0  0  0  0  0  0  0  0
    8.6292    1.3833    0.0000 C   0  0  0  0  0  0  0  0  0  0  0  0
    8.0250    1.8250    0.0000 C   0  0  0  0  0  0  0  0  0  0  0  0
  2  1  2  0  0  0  0
  3  1  1  0  0  0  0
  4  3  2  0  0  0  0
  5  2  1  0  0  0  0
  6  9  1  0  0  0  0
  7  2  1  0  0  0  0
  8  3  1  0  0  0  0
  9 11  1  0  0  0  0
 10  7  1  0  0  0  0
 11  8  2  0  0  0  0
 12 18  1  0  0  0  0
 13  7  2  0  0  0  0
 14  6  1  0  0  0  0
 15  6  1  0  0  0  0
 16  6  1  0  0  0  0
 17 10  1  0  0  0  0
 18 17  1  0  0  0  0
 19 21  1  0  0  0  0
 20  8  1  0  0  0  0
 21 20  2  0  0  0  0
 22 12  2  0  0  0  0
 23 18  2  0  0  0  0
 24 25  2  0  0  0  0
 25 23  1  0  0  0  0
  5  4  1  0  0  0  0
 19  9  2  0  0  0  0
 24 22  1  0  0  0  0
M  END
> <#>
1421

> <PLATE>
LAT018

> <ROW>
E

> <COL>
9

> <COORD>
E09

> <LATID>
LAT018E09

> <Supplier>
Chembridge

> <Suplier_CAT#>
9059804

> <Name>
Novel

> <Concentration_(mM)>
2.5

> <IC50_(µM)>
57

> <Yeast_Active?>
-

> <Pubchem_CID>
6471777

$$$$
