
  -ISIS-  08130814242D

 25 27  0  0  0  0  0  0  0  0999 V2000
   -0.3958    0.0208    0.0000 C   0  0  0  0  0  0  0  0  0  0  0  0
   -1.0708    0.4000    0.0000 C   0  0  0  0  0  0  0  0  0  0  0  0
   -1.7333    0.0000    0.0000 C   0  0  0  0  0  0  0  0  0  0  0  0
    0.3042    0.4458    0.0000 C   0  0  0  0  0  0  0  0  0  0  0  0
    0.9875    0.0625    0.0000 C   0  0  0  0  0  0  0  0  0  0  0  0
    1.6500    0.4458    0.0000 C   0  0  0  0  0  0  0  0  0  0  0  0
   -0.3958   -0.8000    0.0000 C   0  0  0  0  0  0  0  0  0  0  0  0
    2.9875    0.4625    0.0000 C   0  0  0  0  0  0  0  0  0  0  0  0
    3.6667    0.0833    0.0000 C   0  0  0  0  0  0  0  0  0  0  0  0
    2.3292    0.0625    0.0000 C   0  0  0  0  0  0  0  0  0  0  0  0
   -1.7333   -0.7792    0.0000 C   0  0  0  0  0  0  0  0  0  0  0  0
   -1.0708   -1.1792    0.0000 C   0  0  0  0  0  0  0  0  0  0  0  0
    0.2875    1.2208    0.0000 O   0  0  0  0  0  0  0  0  0  0  0  0
    2.3292   -0.7167    0.0000 C   0  0  0  0  0  0  0  0  0  0  0  0
    3.6875   -0.7000    0.0000 C   0  0  0  0  0  0  0  0  0  0  0  0
   -1.0708    1.1833    0.0000 O   0  0  0  0  0  0  0  0  0  0  0  0
    2.9875   -1.1167    0.0000 C   0  0  0  0  0  0  0  0  0  0  0  0
    2.9667    1.2458    0.0000 O   0  0  0  0  0  0  0  0  0  0  0  0
    4.4042   -1.0542    0.0000 O   0  0  0  0  0  0  0  0  0  0  0  0
   -2.4125    0.4000    0.0000 C   0  0  0  0  0  0  0  0  0  0  0  0
   -2.4125   -1.1792    0.0000 C   0  0  0  0  0  0  0  0  0  0  0  0
    2.2875    1.6208    0.0000 C   0  0  0  0  0  0  0  0  0  0  0  0
    5.0500   -0.6167    0.0000 C   0  0  0  0  0  0  0  0  0  0  0  0
   -3.0958    0.0208    0.0000 C   0  0  0  0  0  0  0  0  0  0  0  0
   -3.0958   -0.8000    0.0000 C   0  0  0  0  0  0  0  0  0  0  0  0
  2  1  1  0  0  0  0
  3  2  2  0  0  0  0
  4  1  1  0  0  0  0
  5  4  1  0  0  0  0
  6  5  2  0  0  0  0
  7  1  2  0  0  0  0
  8 10  1  0  0  0  0
  9  8  2  0  0  0  0
 10  6  1  0  0  0  0
 11 12  2  0  0  0  0
 12  7  1  0  0  0  0
 13  4  2  0  0  0  0
 14 10  2  0  0  0  0
 15 17  2  0  0  0  0
 16  2  1  0  0  0  0
 17 14  1  0  0  0  0
 18  8  1  0  0  0  0
 19 15  1  0  0  0  0
 20  3  1  0  0  0  0
 21 11  1  0  0  0  0
 22 18  1  0  0  0  0
 23 19  1  0  0  0  0
 24 20  2  0  0  0  0
 25 21  2  0  0  0  0
 11  3  1  0  0  0  0
 25 24  1  0  0  0  0
 15  9  1  0  0  0  0
M  END
> <#>
1235

> <PLATE>
LAT016

> <ROW>
C

> <COL>
6

> <COORD>
C06

> <LATID>
LAT016C06

> <Supplier>
Chembridge

> <Suplier_CAT#>
6161484

> <Name>
Novel

> <Concentration_(mM)>
2.5

> <IC50_(µM)>
inactive

> <Yeast_Active?>
-

> <Pubchem_CID>
2888679

$$$$
