
  -ISIS-  08130814242D

 23 25  0  0  0  0  0  0  0  0999 V2000
   -1.8333   -1.2042    0.0000 C   0  0  0  0  0  0  0  0  0  0  0  0
   -1.8333   -0.2292    0.0000 N   0  0  0  0  0  0  0  0  0  0  0  0
   -0.9958   -1.6875    0.0000 C   0  0  0  0  0  0  0  0  0  0  0  0
   -2.6708   -1.6875    0.0000 N   0  0  0  0  0  0  0  0  0  0  0  0
   -2.6708    0.2500    0.0000 C   0  0  0  0  0  0  0  0  0  0  0  0
   -3.5125   -0.2292    0.0000 C   0  0  0  0  0  0  0  0  0  0  0  0
   -1.8458    1.6958    0.0000 N   0  0  0  0  0  0  0  0  0  0  0  0
   -3.5125   -1.1875    0.0000 C   0  0  0  0  0  0  0  0  0  0  0  0
   -0.1500   -1.2042    0.0000 C   0  0  0  0  0  0  0  0  0  0  0  0
   -2.6708    1.2125    0.0000 N   0  0  0  0  0  0  0  0  0  0  0  0
    1.5167    1.6708    0.0000 N   0  0  0  0  0  0  0  0  0  0  0  0
   -1.0125    1.2125    0.0000 C   0  0  0  0  0  0  0  0  0  0  0  0
   -0.1708    1.6833    0.0000 C   0  0  0  0  0  0  0  0  0  0  0  0
   -0.1458   -0.3500    0.0000 O   0  0  0  0  0  0  0  0  0  0  0  0
   -0.9958   -2.6667    0.0000 C   0  0  0  0  0  0  0  0  0  0  0  0
    0.6792    1.1958    0.0000 C   0  0  0  0  0  0  0  0  0  0  0  0
    1.5292    2.6500    0.0000 C   0  0  0  0  0  0  0  0  0  0  0  0
   -4.3708   -1.6667    0.0000 C   0  0  0  0  0  0  0  0  0  0  0  0
    0.7042   -1.7042    0.0000 C   0  0  0  0  0  0  0  0  0  0  0  0
   -0.1708    2.6625    0.0000 C   0  0  0  0  0  0  0  0  0  0  0  0
   -0.1500   -3.1500    0.0000 C   0  0  0  0  0  0  0  0  0  0  0  0
    0.6875    3.1500    0.0000 C   0  0  0  0  0  0  0  0  0  0  0  0
    0.7042   -2.6667    0.0000 C   0  0  0  0  0  0  0  0  0  0  0  0
  2  1  2  0  0  0  0
  3  1  1  0  0  0  0
  4  1  1  0  0  0  0
  5  2  1  0  0  0  0
  6  8  1  0  0  0  0
  7 10  1  0  0  0  0
  8  4  2  0  0  0  0
  9  3  2  0  0  0  0
 10  5  1  0  0  0  0
 11 16  1  0  0  0  0
 12  7  2  0  0  0  0
 13 12  1  0  0  0  0
 14  9  1  0  0  0  0
 15  3  1  0  0  0  0
 16 13  2  0  0  0  0
 17 22  1  0  0  0  0
 18  8  1  0  0  0  0
 19  9  1  0  0  0  0
 20 13  1  0  0  0  0
 21 15  2  0  0  0  0
 22 20  2  0  0  0  0
 23 21  1  0  0  0  0
  6  5  2  0  0  0  0
 19 23  2  0  0  0  0
 17 11  2  0  0  0  0
M  END
> <#>
1613

> <PLATE>
LAT021

> <ROW>
E

> <COL>
3

> <COORD>
E03

> <LATID>
LAT021E03

> <Supplier>
Chembridge

> <Suplier_CAT#>
5215548

> <Name>
Novel

> <Concentration_(mM)>
2.5

> <IC50_(µM)>
>100

> <Yeast_Active?>
-

> <Pubchem_CID>
NULL

$$$$
