
  -ISIS-  08130814242D

 21 23  0  0  0  0  0  0  0  0999 V2000
   -3.2333    1.6458    0.0000 C   0  0  0  0  0  0  0  0  0  0  0  0
   -1.6125    1.9625    0.0000 S   0  0  3  0  0  0  0  0  0  0  0  0
   -2.1500    1.6458    0.0000 C   0  0  0  0  0  0  0  0  0  0  0  0
   -3.7708    1.9583    0.0000 C   0  0  0  0  0  0  0  0  0  0  0  0
   -3.2333    1.0125    0.0000 C   0  0  0  0  0  0  0  0  0  0  0  0
   -2.6958    1.9583    0.0000 C   0  0  0  0  0  0  0  0  0  0  0  0
   -3.7708    0.7000    0.0000 C   0  0  0  0  0  0  0  0  0  0  0  0
   -4.3125    1.6458    0.0000 C   0  0  0  0  0  0  0  0  0  0  0  0
   -4.3125    1.0125    0.0000 C   0  0  0  0  0  0  0  0  0  0  0  0
   -2.1500    1.0125    0.0000 C   0  0  0  0  0  0  0  0  0  0  0  0
   -2.6958    0.7000    0.0000 C   0  0  0  0  0  0  0  0  0  0  0  0
   -1.9208    2.4708    0.0000 O   0  0  0  0  0  0  0  0  0  0  0  0
   -1.0500    2.3125    0.0000 O   0  0  0  0  0  0  0  0  0  0  0  0
   -3.7708    2.5833    0.0000 O   0  0  0  0  0  0  0  0  0  0  0  0
   -3.7708    0.0708    0.0000 O   0  0  0  0  0  0  0  0  0  0  0  0
   -1.3000    1.4208    0.0000 O   0  0  0  0  0  0  0  0  0  0  0  0
   -2.6958    2.5708    0.0000 O   0  0  0  0  0  0  0  0  0  0  0  0
   -4.8500    1.9583    0.0000 C   0  0  0  0  0  0  0  0  0  0  0  0
   -4.8500    0.7000    0.0000 C   0  0  0  0  0  0  0  0  0  0  0  0
   -5.3958    1.0125    0.0000 C   0  0  0  0  0  0  0  0  0  0  0  0
   -5.3958    1.6458    0.0000 C   0  0  0  0  0  0  0  0  0  0  0  0
  2  3  1  0  0  0  0
  3  6  2  0  0  0  0
  4  1  1  0  0  0  0
  5  1  2  0  0  0  0
  6  1  1  0  0  0  0
  7  5  1  0  0  0  0
  8  4  1  0  0  0  0
  9  7  1  0  0  0  0
 10  3  1  0  0  0  0
 11  5  1  0  0  0  0
 12  2  2  0  0  0  0
 13  2  2  0  0  0  0
 14  4  2  0  0  0  0
 15  7  2  0  0  0  0
 16  2  1  0  0  0  0
 17  6  1  0  0  0  0
 18  8  1  0  0  0  0
 19  9  1  0  0  0  0
 20 19  2  0  0  0  0
 21 18  2  0  0  0  0
 10 11  2  0  0  0  0
  9  8  2  0  0  0  0
 21 20  1  0  0  0  0
M  END
> <#>
1111

> <PLATE>
LAT014

> <ROW>
G

> <COL>
10

> <COORD>
G10

> <LATID>
LAT014G10

> <Supplier>
Chembridge

> <Suplier_CAT#>
5253977

> <Name>
Novel

> <Concentration_(mM)>
2.5

> <IC50_(µM)>
>100

> <Yeast_Active?>
-

> <Pubchem_CID>
NULL

$$$$
