
  -ISIS-  08130814242D

 15 15  0  0  0  0  0  0  0  0999 V2000
    5.4667   -1.8000    0.0000 C   0  0  0  0  0  0  0  0  0  0  0  0
    5.0917   -2.4500    0.0000 C   0  0  3  0  0  0  0  0  0  0  0  0
    4.3417   -2.4500    0.0000 C   0  0  0  0  0  0  0  0  0  0  0  0
    6.2167   -1.8000    0.0000 O   0  0  0  0  0  0  0  0  0  0  0  0
    3.9667   -1.8000    0.0000 C   0  0  0  0  0  0  0  0  0  0  0  0
    3.9667   -3.0917    0.0000 C   0  0  0  0  0  0  0  0  0  0  0  0
    5.0917   -1.1542    0.0000 O   0  0  0  0  0  0  0  0  0  0  0  0
    2.8417   -2.4500    0.0000 C   0  0  0  0  0  0  0  0  0  0  0  0
    3.2167   -3.0917    0.0000 C   0  0  0  0  0  0  0  0  0  0  0  0
    3.2167   -1.8000    0.0000 C   0  0  0  0  0  0  0  0  0  0  0  0
    2.0917   -2.4500    0.0000 C   0  0  0  0  0  0  0  0  0  0  0  0
    5.4667   -3.0917    0.0000 C   0  0  0  0  0  0  0  0  0  0  0  0
    1.7167   -3.0917    0.0000 C   0  0  3  0  0  0  0  0  0  0  0  0
    0.9667   -3.0917    0.0000 C   0  0  0  0  0  0  0  0  0  0  0  0
    2.0917   -3.7417    0.0000 C   0  0  0  0  0  0  0  0  0  0  0  0
  2  1  1  0  0  0  0
  3  2  1  0  0  0  0
  4  1  2  0  0  0  0
  5  3  2  0  0  0  0
  6  3  1  0  0  0  0
  7  1  1  0  0  0  0
  8  9  1  0  0  0  0
  9  6  2  0  0  0  0
 10  5  1  0  0  0  0
 11  8  1  0  0  0  0
 12  2  1  0  0  0  0
 13 11  1  0  0  0  0
 14 13  1  0  0  0  0
 15 13  1  0  0  0  0
 10  8  2  0  0  0  0
M  END
> <#>
63

> <PLATE>
LAT001

> <ROW>
G

> <COL>
9

> <COORD>
G09

> <LATID>
LAT001G09

> <Supplier>
Microsource

> <Suplier_CAT#>
01500347

> <Name>
Ibuprofen

> <Concentration_(mM)>
2.5

> <IC50_(µM)>
85

> <Yeast_Active?>
-

> <Pubchem_CID>
3672

> <Description>
Antiinflammatory

$$$$
