
  -ISIS-  08130814242D

 13 14  0  0  0  0  0  0  0  0999 V2000
   -3.2064    1.5548    0.0000 C   0  0  0  0  0  0  0  0  0  0  0  0
   -1.9564    1.5548    0.0000 C   0  0  0  0  0  0  0  0  0  0  0  0
   -1.3314    0.4723    0.0000 C   0  0  0  0  0  0  0  0  0  0  0  0
   -1.9564   -0.6103    0.0000 C   0  0  0  0  0  0  0  0  0  0  0  0
   -3.2064   -0.6103    0.0000 C   0  0  0  0  0  0  0  0  0  0  0  0
   -3.8314    0.4723    0.0000 C   0  0  0  0  0  0  0  0  0  0  0  0
   -3.8314    2.6373    0.0000 O   0  0  0  0  0  0  0  0  0  0  0  0
   -0.0814    0.4723    0.0000 C   0  0  0  0  0  0  0  0  0  0  0  0
    0.5436    1.5548    0.0000 C   0  0  0  0  0  0  0  0  0  0  0  0
    1.7936    1.5548    0.0000 C   0  0  0  0  0  0  0  0  0  0  0  0
    2.4186    0.4723    0.0000 C   0  0  0  0  0  0  0  0  0  0  0  0
    1.7936   -0.6103    0.0000 C   0  0  0  0  0  0  0  0  0  0  0  0
    0.5436   -0.6103    0.0000 C   0  0  0  0  0  0  0  0  0  0  0  0
  1  2  1  0  0  0  0
  2  3  2  0  0  0  0
  3  4  1  0  0  0  0
  4  5  2  0  0  0  0
  5  6  1  0  0  0  0
  1  6  2  0  0  0  0
  1  7  1  0  0  0  0
  8  9  1  0  0  0  0
  9 10  2  0  0  0  0
 10 11  1  0  0  0  0
 11 12  2  0  0  0  0
 12 13  1  0  0  0  0
  8 13  2  0  0  0  0
  3  8  1  0  0  0  0
M  END
> <#>
431

> <PLATE>
LAT006

> <ROW>
G

> <COL>
5

> <COORD>
G05

> <LATID>
LAT006G05

> <Supplier>
Aldrich

> <Suplier_CAT#>
262250

> <Name>
3-Phenylphenol

> <Concentration_(mM)>
2.5

> <IC50_(µM)>
30

> <Yeast_Active?>
-

> <Pubchem_CID>
11381

$$$$
