
  -ISIS-  08130814242D

 19 20  0  0  0  0  0  0  0  0999 V2000
    4.9667    0.9333    0.0000 C   0  0  0  0  0  0  0  0  0  0  0  0
    4.2792    1.2458    0.0000 N   0  0  0  0  0  0  0  0  0  0  0  0
    4.8917    0.1875    0.0000 N   0  0  0  0  0  0  0  0  0  0  0  0
    3.7792    0.6833    0.0000 C   0  0  0  0  0  0  0  0  0  0  0  0
    4.1542    0.0333    0.0000 C   0  0  0  0  0  0  0  0  0  0  0  0
    3.0292    0.6833    0.0000 C   0  0  0  0  0  0  0  0  0  0  0  0
    5.6167    1.3083    0.0000 O   0  0  0  0  0  0  0  0  0  0  0  0
    0.4042    0.0333    0.0000 N   0  0  0  0  0  0  0  0  0  0  0  0
    1.9042    0.0333    0.0000 N   0  0  0  0  0  0  0  0  0  0  0  0
    3.7792   -0.6167    0.0000 C   0  0  0  0  0  0  0  0  0  0  0  0
    2.6542    0.0333    0.0000 C   0  0  0  0  0  0  0  0  0  0  0  0
    0.7792   -0.6167    0.0000 C   0  0  0  0  0  0  0  0  0  0  0  0
    1.5292   -0.6167    0.0000 C   0  0  0  0  0  0  0  0  0  0  0  0
    3.0292   -0.6167    0.0000 C   0  0  0  0  0  0  0  0  0  0  0  0
   -0.3458    0.0333    0.0000 C   0  0  0  0  0  0  0  0  0  0  0  0
    0.4042   -1.2667    0.0000 C   0  0  0  0  0  0  0  0  0  0  0  0
   -0.7208   -0.6167    0.0000 C   0  0  0  0  0  0  0  0  0  0  0  0
   -0.3458   -1.2667    0.0000 C   0  0  0  0  0  0  0  0  0  0  0  0
    6.3667   -1.2667    0.0000 Cl  0  0  0  0  0  0  0  0  0  0  0  0
  2  1  1  0  0  0  0
  3  1  1  0  0  0  0
  4  2  1  0  0  0  0
  5  3  1  0  0  0  0
  6  4  2  0  0  0  0
  7  1  2  0  0  0  0
  8 12  2  0  0  0  0
  9 11  1  0  0  0  0
 10  5  2  0  0  0  0
 11  6  1  0  0  0  0
 12 13  1  0  0  0  0
 13  9  1  0  0  0  0
 14 10  1  0  0  0  0
 15  8  1  0  0  0  0
 16 12  1  0  0  0  0
 17 18  1  0  0  0  0
 18 16  2  0  0  0  0
  5  4  1  0  0  0  0
 14 11  2  0  0  0  0
 17 15  2  0  0  0  0
M  END
> <#>
1420

> <PLATE>
LAT018

> <ROW>
D

> <COL>
9

> <COORD>
D09

> <LATID>
LAT018D09

> <Supplier>
Chembridge

> <Suplier_CAT#>
9058373

> <Name>
Novel

> <Concentration_(mM)>
2.5

> <IC50_(µM)>
inactive

> <Yeast_Active?>
-

> <Pubchem_CID>
3162135

$$$$
