
  -ISIS-  08130814242D

 23 24  0  0  0  0  0  0  0  0999 V2000
   -2.0500   -0.4042    0.0000 N   0  0  3  0  0  0  0  0  0  0  0  0
   -2.2208   -0.8167    0.0000 C   0  0  0  0  0  0  0  0  0  0  0  0
   -2.4208   -0.0917    0.0000 C   0  0  0  0  0  0  0  0  0  0  0  0
   -2.8625   -0.3167    0.0000 C   0  0  0  0  0  0  0  0  0  0  0  0
   -2.7500   -0.7542    0.0000 S   0  0  0  0  0  0  0  0  0  0  0  0
   -3.3333   -0.0292    0.0000 C   0  0  0  0  0  0  0  0  0  0  0  0
   -3.7958   -0.3042    0.0000 C   0  0  0  0  0  0  0  0  0  0  0  0
   -1.6208   -0.3167    0.0000 C   0  0  3  0  0  0  0  0  0  0  0  0
   -1.5000    0.1458    0.0000 C   0  0  0  0  0  0  0  0  0  0  0  0
   -2.0125   -1.2500    0.0000 S   0  0  0  0  0  0  0  0  0  0  0  0
   -2.3625    0.4208    0.0000 O   0  0  0  0  0  0  0  0  0  0  0  0
   -3.7708   -0.7792    0.0000 C   0  0  0  0  0  0  0  0  0  0  0  0
   -4.2500   -0.0292    0.0000 C   0  0  0  0  0  0  0  0  0  0  0  0
   -1.8333    0.4958    0.0000 O   0  0  0  0  0  0  0  0  0  0  0  0
   -1.3000   -0.6375    0.0000 C   0  0  3  0  0  0  0  0  0  0  0  0
   -1.0458    0.2833    0.0000 O   0  0  0  0  0  0  0  0  0  0  0  0
   -3.3458   -0.9875    0.0000 Cl  0  0  0  0  0  0  0  0  0  0  0  0
   -4.2833    0.4500    0.0000 Cl  0  0  0  0  0  0  0  0  0  0  0  0
   -4.6708   -0.7542    0.0000 C   0  0  0  0  0  0  0  0  0  0  0  0
   -4.2458   -1.0042    0.0000 C   0  0  0  0  0  0  0  0  0  0  0  0
   -4.6708   -0.2542    0.0000 C   0  0  0  0  0  0  0  0  0  0  0  0
   -0.7833   -0.5542    0.0000 C   0  0  0  0  0  0  0  0  0  0  0  0
   -1.5125   -1.0667    0.0000 C   0  0  0  0  0  0  0  0  0  0  0  0
  2  1  1  0  0  0  0
  3  1  1  0  0  0  0
  4  3  1  0  0  0  0
  5  2  1  0  0  0  0
  6  4  2  0  0  0  0
  7  6  1  0  0  0  0
  8  1  1  0  0  0  0
  9  8  1  0  0  0  0
 10  2  2  0  0  0  0
 11  3  2  0  0  0  0
 12  7  2  0  0  0  0
 13  7  1  0  0  0  0
 14  9  2  0  0  0  0
 15  8  1  0  0  0  0
 16  9  1  0  0  0  0
 17 12  1  0  0  0  0
 18 13  1  0  0  0  0
 19 21  1  0  0  0  0
 20 12  1  0  0  0  0
 21 13  2  0  0  0  0
 22 15  1  0  0  0  0
 23 15  1  0  0  0  0
  5  4  1  0  0  0  0
 19 20  2  0  0  0  0
M  END
> <#>
1925

> <PLATE>
LAT025

> <ROW>
E

> <COL>
2

> <COORD>
E02

> <LATID>
LAT025E02

> <Supplier>
Chembridge

> <Suplier_CAT#>
5573547

> <Name>
Novel

> <Sec_Name>
176_G10

> <Concentration_(mM)>
2.5

> <IC50_(µM)>
22

> <Yeast_Active?>
-

> <Pubchem_CID>
1350131

$$$$
