
  -ISIS-  08130814242D

 20 21  0  0  0  0  0  0  0  0999 V2000
    4.2542    0.7333    0.0000 C   0  0  0  0  0  0  0  0  0  0  0  0
    3.8792    0.0833    0.0000 N   0  0  0  0  0  0  0  0  0  0  0  0
    5.0042    0.7333    0.0000 N   0  0  0  0  0  0  0  0  0  0  0  0
    6.5042    0.7333    0.0000 N   0  0  0  0  0  0  0  0  0  0  0  0
    3.8792    1.3833    0.0000 O   0  0  0  0  0  0  0  0  0  0  0  0
    1.6292    0.0833    0.0000 C   0  0  0  0  0  0  0  0  0  0  0  0
    2.0042   -0.5667    0.0000 C   0  0  0  0  0  0  0  0  0  0  0  0
    2.0042    0.7333    0.0000 C   0  0  0  0  0  0  0  0  0  0  0  0
    3.1292    0.0833    0.0000 C   0  0  0  0  0  0  0  0  0  0  0  0
    6.1292    1.3833    0.0000 C   0  0  0  0  0  0  0  0  0  0  0  0
    5.3792    1.3833    0.0000 C   0  0  0  0  0  0  0  0  0  0  0  0
    0.8792    0.0833    0.0000 C   0  0  3  0  0  0  0  0  0  0  0  0
    2.7542   -0.5667    0.0000 C   0  0  0  0  0  0  0  0  0  0  0  0
    2.7542    0.7333    0.0000 C   0  0  0  0  0  0  0  0  0  0  0  0
    7.2542    0.7333    0.0000 C   0  0  0  0  0  0  0  0  0  0  0  0
    0.5042    0.7333    0.0000 C   0  0  0  0  0  0  0  0  0  0  0  0
    0.5042   -0.5667    0.0000 C   0  0  0  0  0  0  0  0  0  0  0  0
    6.5042    2.0333    0.0000 C   0  0  0  0  0  0  0  0  0  0  0  0
    7.6292    1.3833    0.0000 C   0  0  0  0  0  0  0  0  0  0  0  0
    7.2542    2.0333    0.0000 C   0  0  0  0  0  0  0  0  0  0  0  0
  2  1  1  0  0  0  0
  3  1  1  0  0  0  0
  4 10  2  0  0  0  0
  5  1  2  0  0  0  0
  6  8  2  0  0  0  0
  7 13  2  0  0  0  0
  8 14  1  0  0  0  0
  9  2  1  0  0  0  0
 10 11  1  0  0  0  0
 11  3  1  0  0  0  0
 12  6  1  0  0  0  0
 13  9  1  0  0  0  0
 14  9  2  0  0  0  0
 15  4  1  0  0  0  0
 16 12  1  0  0  0  0
 17 12  1  0  0  0  0
 18 10  1  0  0  0  0
 19 20  1  0  0  0  0
 20 18  2  0  0  0  0
  7  6  1  0  0  0  0
 15 19  2  0  0  0  0
M  END
> <#>
1411

> <PLATE>
LAT018

> <ROW>
C

> <COL>
8

> <COORD>
C08

> <LATID>
LAT018C08

> <Supplier>
Chembridge

> <Suplier_CAT#>
9053946

> <Name>
Novel

> <Concentration_(mM)>
2.5

> <IC50_(µM)>
70

> <Yeast_Active?>
-

> <Pubchem_CID>
6470077

$$$$
