
  -ISIS-  08130814242D

 21 22  0  0  0  0  0  0  0  0999 V2000
    1.3542   -9.6292    0.0000 S   0  0  3  0  0  0  0  0  0  0  0  0
   -1.8833   -9.6292    0.0000 N   0  3  0  0  0  0  0  0  0  0  0  0
    2.1042   -9.6292    0.0000 N   0  0  0  0  0  0  0  0  0  0  0  0
    0.6042   -9.6167    0.0000 C   0  0  0  0  0  0  0  0  0  0  0  0
   -0.8833   -9.6167    0.0000 C   0  0  0  0  0  0  0  0  0  0  0  0
    1.3542  -10.3792    0.0000 O   0  0  0  0  0  0  0  0  0  0  0  0
    1.3542   -8.8792    0.0000 O   0  0  0  0  0  0  0  0  0  0  0  0
   -2.3833   -8.7667    0.0000 O   0  5  0  0  0  0  0  0  0  0  0  0
    3.6042   -8.3292    0.0000 C   0  0  0  0  0  0  0  0  0  0  0  0
   -2.3708  -10.5000    0.0000 O   0  0  0  0  0  0  0  0  0  0  0  0
    2.4875   -8.9792    0.0000 C   0  0  0  0  0  0  0  0  0  0  0  0
    3.2375   -7.6792    0.0000 C   0  0  0  0  0  0  0  0  0  0  0  0
    3.2375   -8.9792    0.0000 C   0  0  0  0  0  0  0  0  0  0  0  0
    0.2375   -8.9667    0.0000 C   0  0  0  0  0  0  0  0  0  0  0  0
    0.2375  -10.2667    0.0000 C   0  0  0  0  0  0  0  0  0  0  0  0
   -0.5000   -8.9667    0.0000 C   0  0  0  0  0  0  0  0  0  0  0  0
   -0.5000  -10.2667    0.0000 C   0  0  0  0  0  0  0  0  0  0  0  0
    2.4875   -7.6792    0.0000 C   0  0  0  0  0  0  0  0  0  0  0  0
    2.1042   -8.3292    0.0000 C   0  0  0  0  0  0  0  0  0  0  0  0
    3.6042   -7.0292    0.0000 Br  0  0  0  0  0  0  0  0  0  0  0  0
    4.3542   -8.3292    0.0000 C   0  0  0  0  0  0  0  0  0  0  0  0
  2  5  1  0  0  0  0
  3  1  1  0  0  0  0
  4  1  1  0  0  0  0
  5 17  1  0  0  0  0
  6  1  2  0  0  0  0
  7  1  2  0  0  0  0
  8  2  1  0  0  0  0
  9 13  1  0  0  0  0
 10  2  2  0  0  0  0
 11  3  1  0  0  0  0
 12 18  1  0  0  0  0
 13 11  2  0  0  0  0
 14  4  2  0  0  0  0
 15  4  1  0  0  0  0
 16 14  1  0  0  0  0
 17 15  2  0  0  0  0
 18 19  2  0  0  0  0
 19 11  1  0  0  0  0
 20 12  1  0  0  0  0
 21  9  1  0  0  0  0
 16  5  2  0  0  0  0
  9 12  2  0  0  0  0
M  CHG  2   2   1   8  -1
M  END
> <#>
1060

> <PLATE>
LAT014

> <ROW>
D

> <COL>
4

> <COORD>
D04

> <LATID>
LAT014D04

> <Supplier>
Chembridge

> <Suplier_CAT#>
5532541

> <Name>
Novel

> <Concentration_(mM)>
2.5

> <IC50_(µM)>
inactive

> <Yeast_Active?>
-

> <Pubchem_CID>
1087330

$$$$
