
  -ISIS-  08130814242D

 20 23  0  0  0  0  0  0  0  0999 V2000
    0.3292    0.5000    0.0000 C   0  0  0  0  0  0  0  0  0  0  0  0
    0.6500    0.1208    0.0000 C   0  0  0  0  0  0  0  0  0  0  0  0
    0.5042    0.9833    0.0000 C   0  0  0  0  0  0  0  0  0  0  0  0
    1.1500    0.1833    0.0000 N   0  0  0  0  0  0  0  0  0  0  0  0
    1.0042    1.0625    0.0000 N   0  0  3  0  0  0  0  0  0  0  0  0
    1.3292    0.6625    0.0000 C   0  0  0  0  0  0  0  0  0  0  0  0
    0.3500   -0.3167    0.0000 S   0  0  0  0  0  0  0  0  0  0  0  0
   -0.1500    0.3208    0.0000 C   0  0  0  0  0  0  0  0  0  0  0  0
   -0.1125   -0.1792    0.0000 C   0  0  0  0  0  0  0  0  0  0  0  0
    0.1667    1.3833    0.0000 O   0  0  0  0  0  0  0  0  0  0  0  0
    1.1500    1.5625    0.0000 C   0  0  0  0  0  0  0  0  0  0  0  0
    1.8500    0.6625    0.0000 C   0  0  0  0  0  0  0  0  0  0  0  0
   -0.5500    0.6208    0.0000 C   0  0  0  0  0  0  0  0  0  0  0  0
   -0.4958   -0.5167    0.0000 C   0  0  0  0  0  0  0  0  0  0  0  0
    1.6042    1.7833    0.0000 C   0  0  0  0  0  0  0  0  0  0  0  0
    2.1500    1.0458    0.0000 C   0  0  0  0  0  0  0  0  0  0  0  0
   -1.0333    0.4833    0.0000 C   0  0  0  0  0  0  0  0  0  0  0  0
   -0.9708   -0.4167    0.0000 C   0  0  0  0  0  0  0  0  0  0  0  0
   -1.2333    0.0208    0.0000 C   0  0  0  0  0  0  0  0  0  0  0  0
    2.0667    1.5458    0.0000 C   0  0  0  0  0  0  0  0  0  0  0  0
  2  1  2  0  0  0  0
  3  1  1  0  0  0  0
  4  2  1  0  0  0  0
  5  3  1  0  0  0  0
  6  5  1  0  0  0  0
  7  2  1  0  0  0  0
  8  1  1  0  0  0  0
  9  8  2  0  0  0  0
 10  3  2  0  0  0  0
 11  5  1  0  0  0  0
 12  6  1  0  0  0  0
 13  8  1  0  0  0  0
 14  9  1  0  0  0  0
 15 11  1  0  0  0  0
 16 12  1  0  0  0  0
 17 13  1  0  0  0  0
 18 14  1  0  0  0  0
 19 17  1  0  0  0  0
 20 15  1  0  0  0  0
  7  9  1  0  0  0  0
  4  6  2  0  0  0  0
 18 19  1  0  0  0  0
 20 16  1  0  0  0  0
M  END
> <#>
870

> <PLATE>
LAT011

> <ROW>
F

> <COL>
10

> <COORD>
F10

> <LATID>
LAT011F10

> <Supplier>
Chembridge

> <Suplier_CAT#>
5667346

> <Name>
Novel

> <Sec_Name>
209_G05

> <Concentration_(mM)>
2.5

> <IC50_(µM)>
>100

> <Yeast_Active?>
-

> <Pubchem_CID>
724238

$$$$
