
  -ISIS-  08130814242D

 22 23  0  0  0  0  0  0  0  0999 V2000
   -0.1833    2.2208    0.0000 C   0  0  0  0  0  0  0  0  0  0  0  0
   -0.8333    1.8458    0.0000 C   0  0  0  0  0  0  0  0  0  0  0  0
    0.4667    1.8458    0.0000 N   0  0  0  0  0  0  0  0  0  0  0  0
   -1.4750    2.2208    0.0000 N   0  0  0  0  0  0  0  0  0  0  0  0
    2.4167    2.2208    0.0000 C   0  0  0  0  0  0  0  0  0  0  0  0
    3.0667    1.8458    0.0000 C   0  0  0  0  0  0  0  0  0  0  0  0
    1.1167    2.2208    0.0000 C   0  0  0  0  0  0  0  0  0  0  0  0
   -0.1833    2.9708    0.0000 O   0  0  0  0  0  0  0  0  0  0  0  0
    1.7667    1.8458    0.0000 C   0  0  0  0  0  0  0  0  0  0  0  0
   -2.7750    2.9708    0.0000 N   0  0  0  0  0  0  0  0  0  0  0  0
   -0.8333    1.0958    0.0000 O   0  0  0  0  0  0  0  0  0  0  0  0
    3.7167    2.2208    0.0000 O   0  0  0  0  0  0  0  0  0  0  0  0
   -2.1250    1.8458    0.0000 C   0  0  0  0  0  0  0  0  0  0  0  0
   -2.7750    2.2208    0.0000 C   0  0  0  0  0  0  0  0  0  0  0  0
    2.4167    2.9708    0.0000 C   0  0  0  0  0  0  0  0  0  0  0  0
    1.7667    3.3458    0.0000 C   0  0  0  0  0  0  0  0  0  0  0  0
   -3.4250    3.3458    0.0000 C   0  0  0  0  0  0  0  0  0  0  0  0
    1.1167    2.9708    0.0000 C   0  0  0  0  0  0  0  0  0  0  0  0
    3.0667    1.0958    0.0000 C   0  0  0  0  0  0  0  0  0  0  0  0
   -3.4250    1.8458    0.0000 C   0  0  0  0  0  0  0  0  0  0  0  0
   -4.0833    2.9708    0.0000 C   0  0  0  0  0  0  0  0  0  0  0  0
   -4.0833    2.2208    0.0000 C   0  0  0  0  0  0  0  0  0  0  0  0
  2  1  1  0  0  0  0
  3  1  1  0  0  0  0
  4  2  1  0  0  0  0
  5  9  1  0  0  0  0
  6  5  1  0  0  0  0
  7  3  1  0  0  0  0
  8  1  2  0  0  0  0
  9  7  2  0  0  0  0
 10 14  1  0  0  0  0
 11  2  2  0  0  0  0
 12  6  2  0  0  0  0
 13  4  1  0  0  0  0
 14 13  1  0  0  0  0
 15 16  1  0  0  0  0
 16 18  2  0  0  0  0
 17 10  2  0  0  0  0
 18  7  1  0  0  0  0
 19  6  1  0  0  0  0
 20 14  2  0  0  0  0
 21 22  2  0  0  0  0
 22 20  1  0  0  0  0
 15  5  2  0  0  0  0
 21 17  1  0  0  0  0
M  END
> <#>
1447

> <PLATE>
LAT019

> <ROW>
G

> <COL>
2

> <COORD>
G02

> <LATID>
LAT019G02

> <Supplier>
Chembridge

> <Suplier_CAT#>
7999916

> <Name>
Novel

> <Concentration_(mM)>
2.5

> <IC50_(µM)>
>100

> <Yeast_Active?>
-

> <Pubchem_CID>
2988711

$$$$
