
  -ISIS-  08130814242D

 19 20  0  0  0  0  0  0  0  0999 V2000
   -1.2208   -3.8042    0.0000 N   0  0  0  0  0  0  0  0  0  0  0  0
    0.1167   -3.6625    0.0000 C   0  0  0  0  0  0  0  0  0  0  0  0
   -0.8750   -4.5542    0.0000 N   0  0  3  0  0  0  0  0  0  0  0  0
   -0.6000   -3.2500    0.0000 C   0  0  0  0  0  0  0  0  0  0  0  0
   -0.0583   -4.4667    0.0000 C   0  0  0  0  0  0  0  0  0  0  0  0
    0.8292   -3.2500    0.0000 C   0  0  0  0  0  0  0  0  0  0  0  0
    1.5500   -3.6625    0.0000 C   0  0  0  0  0  0  0  0  0  0  0  0
    2.2542   -3.2500    0.0000 C   0  0  0  0  0  0  0  0  0  0  0  0
    2.9792   -3.6750    0.0000 C   0  0  0  0  0  0  0  0  0  0  0  0
    2.2667   -2.4167    0.0000 O   0  0  0  0  0  0  0  0  0  0  0  0
    2.9792   -4.5042    0.0000 C   0  0  0  0  0  0  0  0  0  0  0  0
    3.6917   -3.2625    0.0000 C   0  0  0  0  0  0  0  0  0  0  0  0
    4.4125   -4.5042    0.0000 C   0  0  0  0  0  0  0  0  0  0  0  0
    4.4125   -3.6750    0.0000 C   0  0  0  0  0  0  0  0  0  0  0  0
    3.6917   -4.9167    0.0000 C   0  0  0  0  0  0  0  0  0  0  0  0
   -1.2875   -5.2792    0.0000 C   0  0  0  0  0  0  0  0  0  0  0  0
    5.1292   -4.9250    0.0000 O   0  0  0  0  0  0  0  0  0  0  0  0
   -0.6833   -2.4250    0.0000 C   0  0  0  0  0  0  0  0  0  0  0  0
   -0.8708   -5.9917    0.0000 C   0  0  0  0  0  0  0  0  0  0  0  0
  2  4  1  0  0  0  0
  3  1  1  0  0  0  0
  4  1  2  0  0  0  0
  5  3  1  0  0  0  0
  6  2  1  0  0  0  0
  7  6  2  0  0  0  0
  8  7  1  0  0  0  0
  9  8  1  0  0  0  0
 10  8  2  0  0  0  0
 11  9  2  0  0  0  0
 12  9  1  0  0  0  0
 13 14  1  0  0  0  0
 14 12  2  0  0  0  0
 15 11  1  0  0  0  0
 16  3  1  0  0  0  0
 17 13  1  0  0  0  0
 18  4  1  0  0  0  0
 19 16  1  0  0  0  0
  5  2  2  0  0  0  0
 15 13  2  0  0  0  0
M  END
> <#>
1338

> <PLATE>
LAT017

> <ROW>
B

> <COL>
9

> <COORD>
B09

> <LATID>
LAT017B09

> <Supplier>
Chembridge

> <Suplier_CAT#>
7280558

> <Name>
Novel

> <Concentration_(mM)>
2.5

> <IC50_(µM)>
>100

> <Yeast_Active?>
-

> <Pubchem_CID>
2933006

$$$$
