
  -ISIS-  08130814242D

 19 19  0  0  0  0  0  0  0  0999 V2000
    5.7417   -3.2375    0.0000 N   0  0  3  0  0  0  0  0  0  0  0  0
    4.9167   -3.2375    0.0000 C   0  0  0  0  0  0  0  0  0  0  0  0
    6.1542   -3.9500    0.0000 C   0  0  0  0  0  0  0  0  0  0  0  0
    4.5042   -2.5250    0.0000 C   0  0  0  0  0  0  0  0  0  0  0  0
    5.7417   -4.6625    0.0000 O   0  0  0  0  0  0  0  0  0  0  0  0
    4.5042   -3.9500    0.0000 C   0  0  0  0  0  0  0  0  0  0  0  0
    6.1500   -2.5250    0.0000 C   0  0  3  0  0  0  0  0  0  0  0  0
    6.9750   -3.9500    0.0000 C   0  0  0  0  0  0  0  0  0  0  0  0
    7.3875   -4.6625    0.0000 Cl  0  0  0  0  0  0  0  0  0  0  0  0
    3.2667   -3.2417    0.0000 C   0  0  0  0  0  0  0  0  0  0  0  0
    7.3792   -1.8125    0.0000 O   0  0  0  0  0  0  0  0  0  0  0  0
    3.6792   -2.5292    0.0000 C   0  0  0  0  0  0  0  0  0  0  0  0
    3.6792   -3.9500    0.0000 C   0  0  0  0  0  0  0  0  0  0  0  0
    4.9167   -4.6667    0.0000 C   0  0  0  0  0  0  0  0  0  0  0  0
    6.9667   -2.5250    0.0000 C   0  0  0  0  0  0  0  0  0  0  0  0
    4.9167   -1.8125    0.0000 C   0  0  0  0  0  0  0  0  0  0  0  0
    5.7292   -1.8042    0.0000 C   0  0  0  0  0  0  0  0  0  0  0  0
    8.2000   -1.8125    0.0000 C   0  0  0  0  0  0  0  0  0  0  0  0
    4.5042   -5.3792    0.0000 C   0  0  0  0  0  0  0  0  0  0  0  0
  2  1  1  0  0  0  0
  3  1  1  0  0  0  0
  4  2  2  0  0  0  0
  5  3  2  0  0  0  0
  6  2  1  0  0  0  0
  7  1  1  0  0  0  0
  8  3  1  0  0  0  0
  9  8  1  0  0  0  0
 10 13  1  0  0  0  0
 11 15  1  0  0  0  0
 12  4  1  0  0  0  0
 13  6  2  0  0  0  0
 14  6  1  0  0  0  0
 15  7  1  0  0  0  0
 16  4  1  0  0  0  0
 17  7  1  0  0  0  0
 18 11  1  0  0  0  0
 19 14  1  0  0  0  0
 12 10  2  0  0  0  0
M  END
> <#>
181

> <PLATE>
LAT003

> <ROW>
E

> <COL>
4

> <COORD>
E04

> <LATID>
LAT003E04

> <Supplier>
Microsource

> <Suplier_CAT#>
00330035

> <Name>
Metolachlor

> <Concentration_(mM)>
2.5

> <IC50_(µM)>
90

> <Yeast_Active?>
-

> <Pubchem_CID>
4169

> <Description>
Herbicide

> <Comment>
Fatty Acid Elongase Inhibitor

> <Source>
Synthetic

> <LATCA_Notes>
Used as a monoct selective herbicide

$$$$
