
  -ISIS-  08130814242D

 21 22  0  0  0  0  0  0  0  0999 V2000
   -1.4208    1.0708    0.0000 C   0  0  0  0  0  0  0  0  0  0  0  0
   -0.8458    0.7125    0.0000 C   0  0  0  0  0  0  0  0  0  0  0  0
   -1.4208    1.7333    0.0000 C   0  0  0  0  0  0  0  0  0  0  0  0
   -2.0208    2.0708    0.0000 C   0  0  0  0  0  0  0  0  0  0  0  0
   -2.0208    0.7333    0.0000 C   0  0  0  0  0  0  0  0  0  0  0  0
   -0.2625    1.0500    0.0000 C   0  0  0  0  0  0  0  0  0  0  0  0
   -0.8625    0.0500    0.0000 O   0  0  0  0  0  0  0  0  0  0  0  0
   -2.5833    1.7333    0.0000 C   0  0  0  0  0  0  0  0  0  0  0  0
    1.8792   -0.5542    0.0000 O   0  0  0  0  0  0  0  0  0  0  0  0
    0.3000    0.6958    0.0000 C   0  0  0  0  0  0  0  0  0  0  0  0
    1.3667   -0.1042    0.0000 C   0  0  0  0  0  0  0  0  0  0  0  0
   -0.8458    2.0708    0.0000 O   0  0  0  0  0  0  0  0  0  0  0  0
   -2.5833    1.0708    0.0000 C   0  0  0  0  0  0  0  0  0  0  0  0
    0.2792   -0.0167    0.0000 C   0  0  0  0  0  0  0  0  0  0  0  0
    0.7792    0.9458    0.0000 C   0  0  0  0  0  0  0  0  0  0  0  0
    0.8542   -0.3667    0.0000 C   0  0  0  0  0  0  0  0  0  0  0  0
    1.3667    0.6125    0.0000 C   0  0  0  0  0  0  0  0  0  0  0  0
   -3.1833    2.0500    0.0000 O   0  0  0  0  0  0  0  0  0  0  0  0
    1.7542   -1.2375    0.0000 C   0  0  3  0  0  0  0  0  0  0  0  0
    1.0792   -1.4792    0.0000 C   0  0  0  0  0  0  0  0  0  0  0  0
    2.2792   -1.7000    0.0000 C   0  0  0  0  0  0  0  0  0  0  0  0
  2  1  1  0  0  0  0
  3  1  2  0  0  0  0
  4  3  1  0  0  0  0
  5  1  1  0  0  0  0
  6  2  1  0  0  0  0
  7  2  2  0  0  0  0
  8 13  1  0  0  0  0
  9 11  1  0  0  0  0
 10  6  1  0  0  0  0
 11 17  1  0  0  0  0
 12  3  1  0  0  0  0
 13  5  2  0  0  0  0
 14 10  2  0  0  0  0
 15 10  1  0  0  0  0
 16 14  1  0  0  0  0
 17 15  2  0  0  0  0
 18  8  1  0  0  0  0
 19  9  1  0  0  0  0
 20 19  1  0  0  0  0
 21 19  1  0  0  0  0
  8  4  2  0  0  0  0
 16 11  2  0  0  0  0
M  END
> <#>
1288

> <PLATE>
LAT017

> <ROW>
H

> <COL>
2

> <COORD>
H02

> <LATID>
LAT017H02

> <Supplier>
Chembridge

> <Suplier_CAT#>
6872274

> <Name>
Novel

> <Concentration_(mM)>
2.5

> <IC50_(µM)>
62

> <Yeast_Active?>
-

> <Pubchem_CID>
765925

$$$$
