
  -ISIS-  08130814242D

 24 26  0  0  0  0  0  0  0  0999 V2000
   -0.4625   -0.2875    0.0000 C   0  0  0  0  0  0  0  0  0  0  0  0
    3.6292    0.2125    0.0000 C   0  0  0  0  0  0  0  0  0  0  0  0
    1.1500   -0.3042    0.0000 N   0  0  0  0  0  0  0  0  0  0  0  0
    2.8500   -0.2542    0.0000 C   0  0  0  0  0  0  0  0  0  0  0  0
    3.6292    1.1333    0.0000 N   0  0  0  0  0  0  0  0  0  0  0  0
    0.3667    0.1625    0.0000 N   0  0  0  0  0  0  0  0  0  0  0  0
   -0.4625   -1.1667    0.0000 O   0  0  0  0  0  0  0  0  0  0  0  0
    2.0542    0.2125    0.0000 C   0  0  0  0  0  0  0  0  0  0  0  0
   -1.2500    0.1333    0.0000 C   0  0  0  0  0  0  0  0  0  0  0  0
    4.3792   -0.2542    0.0000 C   0  0  0  0  0  0  0  0  0  0  0  0
   -2.0458   -0.2875    0.0000 O   0  0  0  0  0  0  0  0  0  0  0  0
   -2.8000    0.1833    0.0000 C   0  0  0  0  0  0  0  0  0  0  0  0
   -4.3708    1.0500    0.0000 C   0  0  0  0  0  0  0  0  0  0  0  0
   -5.1625    1.5125    0.0000 Cl  0  0  0  0  0  0  0  0  0  0  0  0
   -2.8000    1.0500    0.0000 C   0  0  0  0  0  0  0  0  0  0  0  0
   -3.6333   -0.2875    0.0000 C   0  0  0  0  0  0  0  0  0  0  0  0
   -4.3708    0.1833    0.0000 C   0  0  0  0  0  0  0  0  0  0  0  0
   -3.6333    1.5125    0.0000 C   0  0  0  0  0  0  0  0  0  0  0  0
    2.8500   -1.2167    0.0000 C   0  0  0  0  0  0  0  0  0  0  0  0
    3.5875   -1.6542    0.0000 C   0  0  0  0  0  0  0  0  0  0  0  0
    4.4375    1.5625    0.0000 C   0  0  0  0  0  0  0  0  0  0  0  0
    4.3792   -1.2167    0.0000 C   0  0  0  0  0  0  0  0  0  0  0  0
    5.2042    0.1833    0.0000 C   0  0  0  0  0  0  0  0  0  0  0  0
    5.2167    1.0708    0.0000 C   0  0  0  0  0  0  0  0  0  0  0  0
  2  4  1  0  0  0  0
  3  6  1  0  0  0  0
  4  8  1  0  0  0  0
  5  2  1  0  0  0  0
  6  1  1  0  0  0  0
  7  1  2  0  0  0  0
  8  3  2  0  0  0  0
  9  1  1  0  0  0  0
 10  2  2  0  0  0  0
 11  9  1  0  0  0  0
 12 11  1  0  0  0  0
 13 17  1  0  0  0  0
 14 13  1  0  0  0  0
 15 12  2  0  0  0  0
 16 12  1  0  0  0  0
 17 16  2  0  0  0  0
 18 15  1  0  0  0  0
 19  4  2  0  0  0  0
 20 19  1  0  0  0  0
 21  5  2  0  0  0  0
 22 20  2  0  0  0  0
 23 10  1  0  0  0  0
 24 23  2  0  0  0  0
 18 13  2  0  0  0  0
 22 10  1  0  0  0  0
 21 24  1  0  0  0  0
M  END
> <#>
930

> <PLATE>
LAT012

> <ROW>
B

> <COL>
8

> <COORD>
B08

> <LATID>
LAT012B08

> <Supplier>
Chembridge

> <Suplier_CAT#>
5755607

> <Name>
Novel

> <Sec_Name>
240_G02

> <Concentration_(mM)>
2.5

> <IC50_(µM)>
0.48

> <Yeast_Active?>
-

> <Pubchem_CID>
869668

$$$$
