
  -ISIS-  08130814242D

 18 20  0  0  0  0  0  0  0  0999 V2000
   -1.2953   -0.7141    0.0000 C   0  0  0  0  0  0  0  0  0  0  0  0
   -2.3749   -0.0841    0.0000 C   0  0  0  0  0  0  0  0  0  0  0  0
   -2.3690    1.1659    0.0000 C   0  0  0  0  0  0  0  0  0  0  0  0
   -1.2835    1.7858    0.0000 C   0  0  0  0  0  0  0  0  0  0  0  0
   -0.2040    1.1557    0.0000 C   0  0  0  0  0  0  0  0  0  0  0  0
    0.8815    1.7756    0.0000 C   0  0  0  0  0  0  0  0  0  0  0  0
    0.8874    3.0256    0.0000 O   0  0  0  0  0  0  0  0  0  0  0  0
    1.9611    1.1455    0.0000 C   0  0  0  0  0  0  0  0  0  0  0  0
    3.0466    1.7654    0.0000 C   0  0  0  0  0  0  0  0  0  0  0  0
    4.1261    1.1353    0.0000 C   0  0  0  0  0  0  0  0  0  0  0  0
    4.1202   -0.1147    0.0000 C   0  0  0  0  0  0  0  0  0  0  0  0
    3.0348   -0.7346    0.0000 C   0  0  0  0  0  0  0  0  0  0  0  0
    1.9552   -0.1045    0.0000 C   0  0  0  0  0  0  0  0  0  0  0  0
    0.8697   -0.7243    0.0000 C   0  0  0  0  0  0  0  0  0  0  0  0
    0.8638   -1.9743    0.0000 O   0  0  0  0  0  0  0  0  0  0  0  0
   -0.2098   -0.0943    0.0000 C   0  0  0  0  0  0  0  0  0  0  0  0
    3.0524    3.0154    0.0000 O   0  0  0  0  0  0  0  0  0  0  0  0
   -1.3012   -1.9641    0.0000 O   0  0  0  0  0  0  0  0  0  0  0  0
  1  2  1  0  0  0  0
  2  3  2  0  0  0  0
  3  4  1  0  0  0  0
  4  5  2  0  0  0  0
  5  6  1  0  0  0  0
  6  7  2  0  0  0  0
  6  8  1  0  0  0  0
  8  9  1  0  0  0  0
  9 10  2  0  0  0  0
 10 11  1  0  0  0  0
 11 12  2  0  0  0  0
 12 13  1  0  0  0  0
  8 13  2  0  0  0  0
 13 14  1  0  0  0  0
 14 15  2  0  0  0  0
 14 16  1  0  0  0  0
  5 16  1  0  0  0  0
  1 16  2  0  0  0  0
  9 17  1  0  0  0  0
  1 18  1  0  0  0  0
M  END
> <#>
342

> <PLATE>
LAT005

> <ROW>
F

> <COL>
4

> <COORD>
F04

> <LATID>
LAT005F04

> <Supplier>
Fluka

> <Suplier_CAT#>
37490

> <Name>
1,5-Dihydroxyanthraquinone

> <Concentration_(mM)>
2.5

> <IC50_(µM)>
inactive

> <Yeast_Active?>
-

> <Pubchem_CID>
8328

$$$$
