
  -ISIS-  08130814242D

 21 23  0  0  0  0  0  0  0  0999 V2000
    5.6167   -3.6292    0.0000 N   0  0  3  0  0  0  0  0  0  0  0  0
    4.9542   -4.6250    0.0000 N   0  0  0  0  0  0  0  0  0  0  0  0
    5.6500   -4.3667    0.0000 C   0  0  0  0  0  0  0  0  0  0  0  0
    4.9042   -3.4292    0.0000 C   0  0  0  0  0  0  0  0  0  0  0  0
    6.7750   -3.1042    0.0000 C   0  0  0  0  0  0  0  0  0  0  0  0
    6.0500   -3.0375    0.0000 C   0  0  0  0  0  0  0  0  0  0  0  0
    4.5000   -4.0417    0.0000 C   0  0  0  0  0  0  0  0  0  0  0  0
    7.8167   -4.1042    0.0000 N   0  0  0  0  0  0  0  0  0  0  0  0
    7.0792   -3.7750    0.0000 N   0  0  0  0  0  0  0  0  0  0  0  0
    7.2417   -2.3917    0.0000 O   0  0  0  0  0  0  0  0  0  0  0  0
    6.7625   -6.4792    0.0000 N   0  0  0  0  0  0  0  0  0  0  0  0
    7.9000   -4.8500    0.0000 C   0  0  0  0  0  0  0  0  0  0  0  0
    7.2917   -5.2917    0.0000 C   0  0  0  0  0  0  0  0  0  0  0  0
    7.3667   -6.0417    0.0000 C   0  0  0  0  0  0  0  0  0  0  0  0
    4.5875   -2.7667    0.0000 C   0  0  0  0  0  0  0  0  0  0  0  0
    6.0792   -6.1750    0.0000 C   0  0  0  0  0  0  0  0  0  0  0  0
    3.7667   -3.9917    0.0000 C   0  0  0  0  0  0  0  0  0  0  0  0
    6.6042   -4.9917    0.0000 C   0  0  0  0  0  0  0  0  0  0  0  0
    6.0000   -5.4292    0.0000 C   0  0  0  0  0  0  0  0  0  0  0  0
    3.8542   -2.7250    0.0000 C   0  0  0  0  0  0  0  0  0  0  0  0
    3.4417   -3.3292    0.0000 C   0  0  0  0  0  0  0  0  0  0  0  0
  2  3  2  0  0  0  0
  3  1  1  0  0  0  0
  4  1  1  0  0  0  0
  5  6  1  0  0  0  0
  6  1  1  0  0  0  0
  7  4  2  0  0  0  0
  8  9  1  0  0  0  0
  9  5  1  0  0  0  0
 10  5  2  0  0  0  0
 11 14  2  0  0  0  0
 12  8  2  0  0  0  0
 13 12  1  0  0  0  0
 14 13  1  0  0  0  0
 15  4  1  0  0  0  0
 16 19  2  0  0  0  0
 17  7  1  0  0  0  0
 18 13  2  0  0  0  0
 19 18  1  0  0  0  0
 20 15  2  0  0  0  0
 21 20  1  0  0  0  0
  7  2  1  0  0  0  0
 17 21  2  0  0  0  0
 11 16  1  0  0  0  0
M  END
> <#>
1639

> <PLATE>
LAT021

> <ROW>
G

> <COL>
6

> <COORD>
G06

> <LATID>
LAT021G06

> <Supplier>
Chembridge

> <Suplier_CAT#>
5784111

> <Name>
Novel

> <Concentration_(mM)>
2.5

> <IC50_(µM)>
inactive

> <Yeast_Active?>
-

> <Pubchem_CID>
760607

$$$$
