
  -ISIS-  08130814242D

 19 20  0  0  0  0  0  0  0  0999 V2000
    2.5417   -0.1375    0.0000 S   0  0  3  0  0  0  0  0  0  0  0  0
    2.5500   -0.9625    0.0000 C   0  0  0  0  0  0  0  0  0  0  0  0
    3.3667   -0.1292    0.0000 N   0  0  0  0  0  0  0  0  0  0  0  0
    1.7250   -0.1375    0.0000 O   0  0  0  0  0  0  0  0  0  0  0  0
    2.5417    0.6833    0.0000 O   0  0  0  0  0  0  0  0  0  0  0  0
    3.2667   -1.3750    0.0000 C   0  0  0  0  0  0  0  0  0  0  0  0
    1.8375   -1.3750    0.0000 C   0  0  0  0  0  0  0  0  0  0  0  0
    3.7667    2.0208    0.0000 N   0  0  0  0  0  0  0  0  0  0  0  0
    3.7792    0.5875    0.0000 C   0  0  0  0  0  0  0  0  0  0  0  0
    3.3542    1.3000    0.0000 C   0  0  0  0  0  0  0  0  0  0  0  0
    3.9792   -0.9542    0.0000 Cl  0  0  0  0  0  0  0  0  0  0  0  0
    1.1250   -0.9667    0.0000 Cl  0  0  0  0  0  0  0  0  0  0  0  0
    2.5500   -2.6167    0.0000 C   0  0  0  0  0  0  0  0  0  0  0  0
    1.8375   -2.2042    0.0000 C   0  0  0  0  0  0  0  0  0  0  0  0
    3.2667   -2.2042    0.0000 C   0  0  0  0  0  0  0  0  0  0  0  0
    3.3500    2.7250    0.0000 C   0  0  0  0  0  0  0  0  0  0  0  0
    2.5375    1.2875    0.0000 C   0  0  0  0  0  0  0  0  0  0  0  0
    2.5250    2.7208    0.0000 C   0  0  0  0  0  0  0  0  0  0  0  0
    2.1167    1.9958    0.0000 C   0  0  0  0  0  0  0  0  0  0  0  0
  2  1  1  0  0  0  0
  3  1  1  0  0  0  0
  4  1  2  0  0  0  0
  5  1  2  0  0  0  0
  6  2  2  0  0  0  0
  7  2  1  0  0  0  0
  8 10  2  0  0  0  0
  9  3  1  0  0  0  0
 10  9  1  0  0  0  0
 11  6  1  0  0  0  0
 12  7  1  0  0  0  0
 13 14  1  0  0  0  0
 14  7  2  0  0  0  0
 15  6  1  0  0  0  0
 16  8  1  0  0  0  0
 17 10  1  0  0  0  0
 18 19  1  0  0  0  0
 19 17  2  0  0  0  0
 15 13  2  0  0  0  0
 16 18  2  0  0  0  0
M  END
> <#>
1949

> <PLATE>
LAT025

> <ROW>
E

> <COL>
5

> <COORD>
E05

> <LATID>
LAT025E05

> <Supplier>
Chembridge

> <Suplier_CAT#>
7469977

> <Name>
Novel

> <Concentration_(mM)>
2.5

> <IC50_(µM)>
inactive

> <Yeast_Active?>
-

> <Pubchem_CID>
891215

$$$$
