
  -ISIS-  08130814242D

 21 24  0  0  0  0  0  0  0  0999 V2000
    0.8167    1.3458    0.0000 C   0  0  0  0  0  0  0  0  0  0  0  0
    1.4667    1.7208    0.0000 C   0  0  0  0  0  0  0  0  0  0  0  0
    0.8167    0.5958    0.0000 C   0  0  0  0  0  0  0  0  0  0  0  0
    1.4667    0.2125    0.0000 C   0  0  0  0  0  0  0  0  0  0  0  0
    0.1667    1.7208    0.0000 C   0  0  0  0  0  0  0  0  0  0  0  0
    2.1292    1.3458    0.0000 C   0  0  0  0  0  0  0  0  0  0  0  0
    2.1292    0.5958    0.0000 C   0  0  0  0  0  0  0  0  0  0  0  0
    0.1667    0.2125    0.0000 C   0  0  0  0  0  0  0  0  0  0  0  0
   -0.4833    1.3458    0.0000 C   0  0  0  0  0  0  0  0  0  0  0  0
   -0.4833    0.5958    0.0000 C   0  0  0  0  0  0  0  0  0  0  0  0
    1.4667    2.4708    0.0000 O   0  0  0  0  0  0  0  0  0  0  0  0
    1.4667   -0.5292    0.0000 O   0  0  0  0  0  0  0  0  0  0  0  0
    0.1667    2.4708    0.0000 O   0  0  0  0  0  0  0  0  0  0  0  0
    2.7792    1.7208    0.0000 C   0  0  0  0  0  0  0  0  0  0  0  0
    2.7792    0.2125    0.0000 C   0  0  0  0  0  0  0  0  0  0  0  0
   -1.1333    1.7208    0.0000 C   0  0  0  0  0  0  0  0  0  0  0  0
   -1.1333    0.2125    0.0000 C   0  0  0  0  0  0  0  0  0  0  0  0
    3.4292    1.3458    0.0000 C   0  0  0  0  0  0  0  0  0  0  0  0
    3.4292    0.5958    0.0000 C   0  0  0  0  0  0  0  0  0  0  0  0
   -1.7833    1.3458    0.0000 C   0  0  0  0  0  0  0  0  0  0  0  0
   -1.7833    0.5958    0.0000 C   0  0  0  0  0  0  0  0  0  0  0  0
  2  1  1  0  0  0  0
  3  1  2  0  0  0  0
  4  3  1  0  0  0  0
  5  1  1  0  0  0  0
  6  2  1  0  0  0  0
  7  4  1  0  0  0  0
  8  3  1  0  0  0  0
  9  5  2  0  0  0  0
 10  9  1  0  0  0  0
 11  2  2  0  0  0  0
 12  4  2  0  0  0  0
 13  5  1  0  0  0  0
 14  6  1  0  0  0  0
 15  7  1  0  0  0  0
 16  9  1  0  0  0  0
 17 10  1  0  0  0  0
 18 14  2  0  0  0  0
 19 15  2  0  0  0  0
 20 16  2  0  0  0  0
 21 20  1  0  0  0  0
 10  8  2  0  0  0  0
  7  6  2  0  0  0  0
 17 21  2  0  0  0  0
 19 18  1  0  0  0  0
M  END
> <#>
1110

> <PLATE>
LAT014

> <ROW>
F

> <COL>
10

> <COORD>
F10

> <LATID>
LAT014F10

> <Supplier>
Chembridge

> <Suplier_CAT#>
5251562

> <Name>
Novel

> <Concentration_(mM)>
2.5

> <IC50_(µM)>
inactive

> <Yeast_Active?>
-

> <Pubchem_CID>
NULL

$$$$
