
  -ISIS-  08130814242D

 17 17  0  0  0  0  0  0  0  0999 V2000
   -4.9208    1.4625    0.0000 C   0  0  0  0  0  0  0  0  0  0  0  0
   -4.1125    0.9958    0.0000 C   0  0  0  0  0  0  0  0  0  0  0  0
   -4.9208    2.4000    0.0000 C   0  0  0  0  0  0  0  0  0  0  0  0
   -3.3000    1.4625    0.0000 C   0  0  0  0  0  0  0  0  0  0  0  0
   -4.1125    2.8708    0.0000 C   0  0  0  0  0  0  0  0  0  0  0  0
   -3.3000    2.4000    0.0000 C   0  0  0  0  0  0  0  0  0  0  0  0
   -5.4958    1.2125    0.0000 Cl  0  0  0  0  0  0  0  0  0  0  0  0
    0.1875    2.2833    0.0000 N   0  0  3  0  0  0  0  0  0  0  0  0
   -2.4708    2.7500    0.0000 O   0  0  0  0  0  0  0  0  0  0  0  0
   -1.6625    2.3458    0.0000 C   0  0  0  0  0  0  0  0  0  0  0  0
   -5.5333    2.7500    0.0000 C   0  0  0  0  0  0  0  0  0  0  0  0
   -4.1208    0.5125    0.0000 C   0  0  0  0  0  0  0  0  0  0  0  0
   -0.6458    2.7333    0.0000 C   0  0  0  0  0  0  0  0  0  0  0  0
    0.4542    1.6625    0.0000 C   0  0  0  0  0  0  0  0  0  0  0  0
    1.0542    2.6000    0.0000 C   0  0  0  0  0  0  0  0  0  0  0  0
    1.7542    2.3000    0.0000 C   0  0  0  0  0  0  0  0  0  0  0  0
    1.4167    1.3333    0.0000 C   0  0  0  0  0  0  0  0  0  0  0  0
  2  1  2  0  0  0  0
  3  1  1  0  0  0  0
  4  2  1  0  0  0  0
  5  3  2  0  0  0  0
  6  5  1  0  0  0  0
  7  1  1  0  0  0  0
  8 13  1  0  0  0  0
  9  6  1  0  0  0  0
 10  9  1  0  0  0  0
 11  3  1  0  0  0  0
 12  2  1  0  0  0  0
 13 10  1  0  0  0  0
 14  8  1  0  0  0  0
 15  8  1  0  0  0  0
 16 15  1  0  0  0  0
 17 14  1  0  0  0  0
  4  6  2  0  0  0  0
M  END
> <#>
1004

> <PLATE>
LAT013

> <ROW>
D

> <COL>
7

> <COORD>
D07

> <LATID>
LAT013D07

> <Supplier>
Chembridge

> <Suplier_CAT#>
5467581

> <Name>
Novel

> <Sec_Name>
131_H06

> <Concentration_(mM)>
2.5

> <IC50_(µM)>
inactive

> <Yeast_Active?>
-

> <Pubchem_CID>
784762

$$$$
