
  -ISIS-  08130814242D

 30 32  0  0  0  0  0  0  0  0999 V2000
    1.8792    0.9958    0.0000 N   0  3  0  0  0  0  0  0  0  0  0  0
   -2.4000    0.2500    0.0000 C   0  0  0  0  0  0  0  0  0  0  0  0
   -2.8625   -0.0042    0.0000 C   0  0  3  0  0  0  0  0  0  0  0  0
    1.4000    0.7333    0.0000 C   0  0  0  0  0  0  0  0  0  0  0  0
    2.3375    0.7125    0.0000 O   0  5  0  0  0  0  0  0  0  0  0  0
    1.9000    1.5333    0.0000 O   0  0  0  0  0  0  0  0  0  0  0  0
   -1.9208   -0.0292    0.0000 N   0  0  0  0  0  0  0  0  0  0  0  0
   -1.4458    0.2500    0.0000 N   0  0  0  0  0  0  0  0  0  0  0  0
   -2.4000    0.8125    0.0000 O   0  0  0  0  0  0  0  0  0  0  0  0
   -2.8625   -0.5375    0.0000 C   0  0  0  0  0  0  0  0  0  0  0  0
   -3.3208    0.2625    0.0000 C   0  0  0  0  0  0  0  0  0  0  0  0
   -0.5000    0.2333    0.0000 C   0  0  0  0  0  0  0  0  0  0  0  0
   -0.0458   -0.0500    0.0000 C   0  0  0  0  0  0  0  0  0  0  0  0
    1.3792    0.1958    0.0000 C   0  0  0  0  0  0  0  0  0  0  0  0
    0.9375    1.0125    0.0000 C   0  0  0  0  0  0  0  0  0  0  0  0
   -0.9833   -0.0292    0.0000 C   0  0  0  0  0  0  0  0  0  0  0  0
   -3.3208   -0.2667    0.0000 O   0  0  0  0  0  0  0  0  0  0  0  0
    0.4375    0.2125    0.0000 C   0  0  0  0  0  0  0  0  0  0  0  0
    0.9000   -0.0667    0.0000 C   0  0  0  0  0  0  0  0  0  0  0  0
    0.4542    0.7500    0.0000 C   0  0  0  0  0  0  0  0  0  0  0  0
   -3.3208   -0.8000    0.0000 C   0  0  0  0  0  0  0  0  0  0  0  0
   -3.3208    0.8000    0.0000 C   0  0  0  0  0  0  0  0  0  0  0  0
   -3.7958    0.0000    0.0000 C   0  0  0  0  0  0  0  0  0  0  0  0
   -2.4000   -0.8042    0.0000 C   0  0  0  0  0  0  0  0  0  0  0  0
   -3.7708    1.0833    0.0000 C   0  0  0  0  0  0  0  0  0  0  0  0
   -4.2708    0.2708    0.0000 C   0  0  0  0  0  0  0  0  0  0  0  0
   -2.4000   -1.3500    0.0000 C   0  0  0  0  0  0  0  0  0  0  0  0
   -3.3333   -1.3375    0.0000 C   0  0  0  0  0  0  0  0  0  0  0  0
   -4.2500    0.8125    0.0000 C   0  0  0  0  0  0  0  0  0  0  0  0
   -2.8625   -1.6042    0.0000 C   0  0  0  0  0  0  0  0  0  0  0  0
  2  7  1  0  0  0  0
  3  2  1  0  0  0  0
  4  1  1  0  0  0  0
  5  1  1  0  0  0  0
  6  1  2  0  0  0  0
  7  8  1  0  0  0  0
  8 16  2  0  0  0  0
  9  2  2  0  0  0  0
 10  3  1  0  0  0  0
 11  3  1  0  0  0  0
 12 13  2  0  0  0  0
 13 18  1  0  0  0  0
 14  4  2  0  0  0  0
 15  4  1  0  0  0  0
 16 12  1  0  0  0  0
 17  3  1  0  0  0  0
 18 20  1  0  0  0  0
 19 14  1  0  0  0  0
 20 15  2  0  0  0  0
 21 10  2  0  0  0  0
 22 11  2  0  0  0  0
 23 11  1  0  0  0  0
 24 10  1  0  0  0  0
 25 22  1  0  0  0  0
 26 23  2  0  0  0  0
 27 24  2  0  0  0  0
 28 21  1  0  0  0  0
 29 26  1  0  0  0  0
 30 27  1  0  0  0  0
 19 18  2  0  0  0  0
 29 25  2  0  0  0  0
 30 28  2  0  0  0  0
M  CHG  2   1   1   5  -1
M  END
> <#>
997

> <PLATE>
LAT013

> <ROW>
E

> <COL>
6

> <COORD>
E06

> <LATID>
LAT013E06

> <Supplier>
Chembridge

> <Suplier_CAT#>
5230345

> <Name>
Novel

> <Concentration_(mM)>
2.5

> <IC50_(µM)>
90

> <Yeast_Active?>
-

> <Pubchem_CID>
2835474

$$$$
