
  -ISIS-  08130814242D

 29 32  0  0  0  0  0  0  0  0999 V2000
   -1.2208    0.1125    0.0000 C   0  0  0  0  0  0  0  0  0  0  0  0
   -0.0458    0.1125    0.0000 C   0  0  0  0  0  0  0  0  0  0  0  0
   -0.6458    0.4500    0.0000 C   0  0  3  0  0  0  0  0  0  0  0  0
   -1.2208   -0.5875    0.0000 C   0  0  0  0  0  0  0  0  0  0  0  0
   -0.0458   -0.5875    0.0000 C   0  0  0  0  0  0  0  0  0  0  0  0
   -0.6458   -0.9292    0.0000 O   0  0  0  0  0  0  0  0  0  0  0  0
   -1.8625    2.5708    0.0000 N   0  3  0  0  0  0  0  0  0  0  0  0
    0.5542    0.4500    0.0000 C   0  0  0  0  0  0  0  0  0  0  0  0
   -1.8208    0.4500    0.0000 C   0  0  0  0  0  0  0  0  0  0  0  0
   -0.6458    1.2125    0.0000 C   0  0  0  0  0  0  0  0  0  0  0  0
   -1.2625    2.2333    0.0000 C   0  0  0  0  0  0  0  0  0  0  0  0
   -1.2458    1.5458    0.0000 C   0  0  0  0  0  0  0  0  0  0  0  0
    0.5542   -0.9292    0.0000 C   0  0  0  0  0  0  0  0  0  0  0  0
   -1.8208   -0.9292    0.0000 C   0  0  0  0  0  0  0  0  0  0  0  0
   -2.4208   -0.5875    0.0000 C   0  0  3  0  0  0  0  0  0  0  0  0
    1.1542   -0.5875    0.0000 C   0  0  3  0  0  0  0  0  0  0  0  0
   -2.4208    0.1125    0.0000 C   0  0  0  0  0  0  0  0  0  0  0  0
    1.1542    0.1125    0.0000 C   0  0  0  0  0  0  0  0  0  0  0  0
   -1.9333    3.2833    0.0000 O   0  5  0  0  0  0  0  0  0  0  0  0
   -2.4833    2.2708    0.0000 O   0  0  0  0  0  0  0  0  0  0  0  0
    0.5542    1.1333    0.0000 O   0  0  0  0  0  0  0  0  0  0  0  0
   -1.8208    1.1333    0.0000 O   0  0  0  0  0  0  0  0  0  0  0  0
   -0.0833    1.5833    0.0000 C   0  0  0  0  0  0  0  0  0  0  0  0
   -0.6833    2.5833    0.0000 C   0  0  0  0  0  0  0  0  0  0  0  0
   -0.1000    2.2708    0.0000 C   0  0  0  0  0  0  0  0  0  0  0  0
    1.6542   -1.0667    0.0000 C   0  0  0  0  0  0  0  0  0  0  0  0
   -3.0000   -0.2667    0.0000 C   0  0  0  0  0  0  0  0  0  0  0  0
   -2.9208   -1.0667    0.0000 C   0  0  0  0  0  0  0  0  0  0  0  0
    1.8375   -0.5667    0.0000 C   0  0  0  0  0  0  0  0  0  0  0  0
  2  3  1  0  0  0  0
  3  1  1  0  0  0  0
  4  1  2  0  0  0  0
  5  6  1  0  0  0  0
  6  4  1  0  0  0  0
  7 11  1  0  0  0  0
  8  2  1  0  0  0  0
  9  1  1  0  0  0  0
 10  3  1  0  0  0  0
 11 12  1  0  0  0  0
 12 10  2  0  0  0  0
 13  5  1  0  0  0  0
 14  4  1  0  0  0  0
 15 17  1  0  0  0  0
 16 13  1  0  0  0  0
 17  9  1  0  0  0  0
 18  8  1  0  0  0  0
 19  7  1  0  0  0  0
 20  7  2  0  0  0  0
 21  8  2  0  0  0  0
 22  9  2  0  0  0  0
 23 10  1  0  0  0  0
 24 25  1  0  0  0  0
 25 23  2  0  0  0  0
 26 16  1  0  0  0  0
 27 15  1  0  0  0  0
 28 15  1  0  0  0  0
 29 16  1  0  0  0  0
 15 14  1  0  0  0  0
  5  2  2  0  0  0  0
 16 18  1  0  0  0  0
 11 24  2  0  0  0  0
M  CHG  2   7   1  19  -1
M  END
> <#>
1059

> <PLATE>
LAT014

> <ROW>
C

> <COL>
4

> <COORD>
C04

> <LATID>
LAT014C04

> <Supplier>
Chembridge

> <Suplier_CAT#>
5150683

> <Name>
Novel

> <Concentration_(mM)>
2.5

> <IC50_(µM)>
24

> <Yeast_Active?>
-

> <Pubchem_CID>
330814

$$$$
