
  -ISIS-  08130814242D

 26 28  0  0  0  0  0  0  0  0999 V2000
   -0.6708   -0.8000    0.0000 S   0  0  3  0  0  0  0  0  0  0  0  0
   -1.5708   -0.8000    0.0000 C   0  0  0  0  0  0  0  0  0  0  0  0
   -2.0125   -1.5542    0.0000 C   0  0  0  0  0  0  0  0  0  0  0  0
   -2.9125   -1.5542    0.0000 C   0  0  0  0  0  0  0  0  0  0  0  0
   -2.0125    0.0000    0.0000 C   0  0  0  0  0  0  0  0  0  0  0  0
   -0.6708   -1.7000    0.0000 O   0  0  0  0  0  0  0  0  0  0  0  0
   -0.6708    0.1208    0.0000 O   0  0  0  0  0  0  0  0  0  0  0  0
    2.9500    0.7625    0.0000 N   0  0  3  0  0  0  0  0  0  0  0  0
    0.2500   -0.8000    0.0000 N   0  0  0  0  0  0  0  0  0  0  0  0
   -3.3708   -0.8000    0.0000 C   0  0  0  0  0  0  0  0  0  0  0  0
   -2.9125    0.0000    0.0000 C   0  0  0  0  0  0  0  0  0  0  0  0
    4.7500    0.7625    0.0000 O   0  0  0  0  0  0  0  0  0  0  0  0
   -4.2708   -0.8000    0.0000 O   0  0  0  0  0  0  0  0  0  0  0  0
    2.0500    0.7625    0.0000 C   0  0  0  0  0  0  0  0  0  0  0  0
    1.5875   -0.0167    0.0000 C   0  0  0  0  0  0  0  0  0  0  0  0
   -1.5625   -2.3375    0.0000 C   0  0  0  0  0  0  0  0  0  0  0  0
    3.3875   -0.0167    0.0000 C   0  0  0  0  0  0  0  0  0  0  0  0
    3.3875    1.5208    0.0000 C   0  0  0  0  0  0  0  0  0  0  0  0
   -3.3500   -2.3292    0.0000 C   0  0  0  0  0  0  0  0  0  0  0  0
    0.6875   -0.0167    0.0000 C   0  0  0  0  0  0  0  0  0  0  0  0
    4.2875    1.5208    0.0000 C   0  0  0  0  0  0  0  0  0  0  0  0
    4.2875   -0.0292    0.0000 C   0  0  0  0  0  0  0  0  0  0  0  0
   -4.7208   -1.5667    0.0000 C   0  0  0  0  0  0  0  0  0  0  0  0
   -2.0125   -3.1167    0.0000 C   0  0  0  0  0  0  0  0  0  0  0  0
   -2.9125   -3.1042    0.0000 C   0  0  0  0  0  0  0  0  0  0  0  0
   -4.2833   -2.3375    0.0000 C   0  0  0  0  0  0  0  0  0  0  0  0
  2  1  1  0  0  0  0
  3  2  1  0  0  0  0
  4  3  2  0  0  0  0
  5  2  2  0  0  0  0
  6  1  2  0  0  0  0
  7  1  2  0  0  0  0
  8 14  1  0  0  0  0
  9  1  1  0  0  0  0
 10 11  2  0  0  0  0
 11  5  1  0  0  0  0
 12 21  1  0  0  0  0
 13 10  1  0  0  0  0
 14 15  1  0  0  0  0
 15 20  1  0  0  0  0
 16  3  1  0  0  0  0
 17  8  1  0  0  0  0
 18  8  1  0  0  0  0
 19  4  1  0  0  0  0
 20  9  1  0  0  0  0
 21 18  1  0  0  0  0
 22 17  1  0  0  0  0
 23 13  1  0  0  0  0
 24 16  2  0  0  0  0
 25 24  1  0  0  0  0
 26 23  1  0  0  0  0
 10  4  1  0  0  0  0
 19 25  2  0  0  0  0
 22 12  1  0  0  0  0
M  END
> <#>
2037

> <PLATE>
LAT026

> <ROW>
E

> <COL>
6

> <COORD>
E06

> <LATID>
LAT026E06

> <Supplier>
Chembridge

> <Suplier_CAT#>
5788700

> <Sec_Name>
249_H09

> <Concentration_(mM)>
2.5

> <IC50_(µM)>
inactive

> <Yeast_Active?>
-

> <Pubchem_CID>
NULL

$$$$
