
  -ISIS-  08130814242D

 21 23  0  0  0  0  0  0  0  0999 V2000
    0.6000    1.8833    0.0000 C   0  0  0  0  0  0  0  0  0  0  0  0
    1.5875    1.2125    0.0000 N   0  0  3  0  0  0  0  0  0  0  0  0
    0.9500    3.0500    0.0000 N   0  0  0  0  0  0  0  0  0  0  0  0
   -0.5000    1.4708    0.0000 C   0  0  0  0  0  0  0  0  0  0  0  0
    2.5500    1.9583    0.0000 C   0  0  0  0  0  0  0  0  0  0  0  0
    2.1292    3.0500    0.0000 N   0  0  0  0  0  0  0  0  0  0  0  0
   -1.4500    2.2458    0.0000 C   0  0  0  0  0  0  0  0  0  0  0  0
    1.5875    0.0208    0.0000 C   0  0  0  0  0  0  0  0  0  0  0  0
   -0.7208    0.2833    0.0000 C   0  0  0  0  0  0  0  0  0  0  0  0
   -2.5708    1.8125    0.0000 C   0  0  0  0  0  0  0  0  0  0  0  0
    3.6875    1.6500    0.0000 S   0  0  0  0  0  0  0  0  0  0  0  0
    2.6500   -0.5667    0.0000 C   0  0  0  0  0  0  0  0  0  0  0  0
    0.5375   -0.5875    0.0000 C   0  0  0  0  0  0  0  0  0  0  0  0
   -2.7708    0.6208    0.0000 C   0  0  0  0  0  0  0  0  0  0  0  0
   -1.2833    3.4333    0.0000 Cl  0  0  0  0  0  0  0  0  0  0  0  0
   -1.8500   -0.1375    0.0000 C   0  0  0  0  0  0  0  0  0  0  0  0
    0.5500   -1.7875    0.0000 C   0  0  0  0  0  0  0  0  0  0  0  0
    2.6500   -1.7792    0.0000 C   0  0  0  0  0  0  0  0  0  0  0  0
   -3.9000    0.2000    0.0000 Cl  0  0  0  0  0  0  0  0  0  0  0  0
    1.6000   -2.3792    0.0000 C   0  0  0  0  0  0  0  0  0  0  0  0
    1.6292   -3.5667    0.0000 C   0  0  0  0  0  0  0  0  0  0  0  0
  2  1  1  0  0  0  0
  3  1  2  0  0  0  0
  4  1  1  0  0  0  0
  5  2  1  0  0  0  0
  6  3  1  0  0  0  0
  7  4  1  0  0  0  0
  8  2  1  0  0  0  0
  9  4  2  0  0  0  0
 10  7  2  0  0  0  0
 11  5  1  0  0  0  0
 12  8  2  0  0  0  0
 13  8  1  0  0  0  0
 14 16  2  0  0  0  0
 15  7  1  0  0  0  0
 16  9  1  0  0  0  0
 17 13  2  0  0  0  0
 18 12  1  0  0  0  0
 19 14  1  0  0  0  0
 20 17  1  0  0  0  0
 21 20  1  0  0  0  0
  5  6  2  0  0  0  0
 14 10  1  0  0  0  0
 20 18  2  0  0  0  0
M  END
> <#>
906

> <PLATE>
LAT012

> <ROW>
B

> <COL>
5

> <COORD>
B05

> <LATID>
LAT012B05

> <Supplier>
Chembridge

> <Suplier_CAT#>
5680870

> <Name>
Novel

> <Sec_Name>
216_A03

> <Concentration_(mM)>
2.5

> <IC50_(µM)>
54

> <Yeast_Active?>
-

> <Pubchem_CID>
NULL

$$$$
