
  -ISIS-  08130814242D

 20 21  0  0  0  0  0  0  0  0999 V2000
    7.0167    2.5583    0.0000 S   0  0  3  0  0  0  0  0  0  0  0  0
    6.3667    2.1833    0.0000 N   0  0  3  0  0  0  0  0  0  0  0  0
    5.0667    2.1833    0.0000 C   0  0  3  0  0  0  0  0  0  0  0  0
    4.4167    2.5583    0.0000 C   0  0  0  0  0  0  0  0  0  0  0  0
    5.7167    2.5583    0.0000 C   0  0  0  0  0  0  0  0  0  0  0  0
    3.7667    2.1833    0.0000 N   0  0  0  0  0  0  0  0  0  0  0  0
    7.5417    2.0333    0.0000 O   0  0  0  0  0  0  0  0  0  0  0  0
    7.5917    3.0458    0.0000 O   0  0  0  0  0  0  0  0  0  0  0  0
    1.8167    2.5583    0.0000 N   0  0  0  0  0  0  0  0  0  0  0  0
    4.4167    3.3083    0.0000 O   0  0  0  0  0  0  0  0  0  0  0  0
    6.5875    3.1708    0.0000 C   0  0  0  0  0  0  0  0  0  0  0  0
    3.1167    2.5583    0.0000 C   0  0  0  0  0  0  0  0  0  0  0  0
    2.4667    2.1833    0.0000 C   0  0  0  0  0  0  0  0  0  0  0  0
    6.3667    1.4333    0.0000 C   0  0  0  0  0  0  0  0  0  0  0  0
    5.0667    1.4333    0.0000 C   0  0  0  0  0  0  0  0  0  0  0  0
    5.7167    1.0583    0.0000 C   0  0  0  0  0  0  0  0  0  0  0  0
    1.1667    2.1833    0.0000 C   0  0  0  0  0  0  0  0  0  0  0  0
    2.4667    1.4333    0.0000 C   0  0  0  0  0  0  0  0  0  0  0  0
    1.1667    1.4333    0.0000 C   0  0  0  0  0  0  0  0  0  0  0  0
    1.8167    1.0583    0.0000 C   0  0  0  0  0  0  0  0  0  0  0  0
  2  1  1  0  0  0  0
  3  5  1  0  0  0  0
  4  3  1  0  0  0  0
  5  2  1  0  0  0  0
  6  4  1  0  0  0  0
  7  1  2  0  0  0  0
  8  1  2  0  0  0  0
  9 13  2  0  0  0  0
 10  4  2  0  0  0  0
 11  1  1  0  0  0  0
 12  6  1  0  0  0  0
 13 12  1  0  0  0  0
 14  2  1  0  0  0  0
 15 16  1  0  0  0  0
 16 14  1  0  0  0  0
 17  9  1  0  0  0  0
 18 13  1  0  0  0  0
 19 20  1  0  0  0  0
 20 18  2  0  0  0  0
 15  3  1  0  0  0  0
 17 19  2  0  0  0  0
M  END
> <#>
1500

> <PLATE>
LAT019

> <ROW>
D

> <COL>
9

> <COORD>
D09

> <LATID>
LAT019D09

> <Supplier>
Chembridge

> <Suplier_CAT#>
7997339

> <Name>
Novel

> <Concentration_(mM)>
2.5

> <IC50_(µM)>
inactive

> <Yeast_Active?>
-

> <Pubchem_CID>
2987428

$$$$
