
  -ISIS-  08130814242D

 24 25  0  0  0  0  0  0  0  0999 V2000
    5.4292   -3.7500    0.0000 C   0  0  0  0  0  0  0  0  0  0  0  0
    4.7792   -3.3667    0.0000 C   0  0  0  0  0  0  0  0  0  0  0  0
    4.1500   -3.7500    0.0000 N   0  0  0  0  0  0  0  0  0  0  0  0
    3.5000   -3.3667    0.0000 C   0  0  0  0  0  0  0  0  0  0  0  0
    2.8500   -3.7500    0.0000 C   0  0  0  0  0  0  0  0  0  0  0  0
    6.7292   -3.7500    0.0000 N   0  0  0  0  0  0  0  0  0  0  0  0
    2.1875   -3.3667    0.0000 C   0  0  0  0  0  0  0  0  0  0  0  0
    6.0792   -3.3667    0.0000 N   0  0  0  0  0  0  0  0  0  0  0  0
    5.4292   -4.5000    0.0000 O   0  0  0  0  0  0  0  0  0  0  0  0
    4.7792   -2.6167    0.0000 O   0  0  0  0  0  0  0  0  0  0  0  0
    8.6792   -4.8667    0.0000 N   0  0  0  0  0  0  0  0  0  0  0  0
    3.5000   -2.6167    0.0000 C   0  0  0  0  0  0  0  0  0  0  0  0
    7.3792   -3.3667    0.0000 C   0  0  0  0  0  0  0  0  0  0  0  0
    8.0292   -3.7500    0.0000 C   0  0  0  0  0  0  0  0  0  0  0  0
    2.1875   -2.6167    0.0000 C   0  0  0  0  0  0  0  0  0  0  0  0
    2.8500   -2.2500    0.0000 C   0  0  0  0  0  0  0  0  0  0  0  0
    2.8500   -4.5000    0.0000 O   0  0  0  0  0  0  0  0  0  0  0  0
    8.0292   -4.5000    0.0000 C   0  0  0  0  0  0  0  0  0  0  0  0
    1.5500   -2.2500    0.0000 O   0  0  0  0  0  0  0  0  0  0  0  0
    9.3292   -4.5000    0.0000 C   0  0  0  0  0  0  0  0  0  0  0  0
    8.6792   -3.3667    0.0000 C   0  0  0  0  0  0  0  0  0  0  0  0
    3.5000   -4.8667    0.0000 C   0  0  0  0  0  0  0  0  0  0  0  0
    0.9000   -2.6167    0.0000 C   0  0  0  0  0  0  0  0  0  0  0  0
    9.3292   -3.7500    0.0000 C   0  0  0  0  0  0  0  0  0  0  0  0
  2  1  1  0  0  0  0
  3  2  1  0  0  0  0
  4  3  1  0  0  0  0
  5  4  2  0  0  0  0
  6  8  1  0  0  0  0
  7  5  1  0  0  0  0
  8  1  1  0  0  0  0
  9  1  2  0  0  0  0
 10  2  2  0  0  0  0
 11 18  2  0  0  0  0
 12  4  1  0  0  0  0
 13  6  2  0  0  0  0
 14 13  1  0  0  0  0
 15 16  1  0  0  0  0
 16 12  2  0  0  0  0
 17  5  1  0  0  0  0
 18 14  1  0  0  0  0
 19 15  1  0  0  0  0
 20 24  2  0  0  0  0
 21 14  2  0  0  0  0
 22 17  1  0  0  0  0
 23 19  1  0  0  0  0
 24 21  1  0  0  0  0
 15  7  2  0  0  0  0
 11 20  1  0  0  0  0
M  END
> <#>
1674

> <PLATE>
LAT021

> <ROW>
B

> <COL>
11

> <COORD>
B11

> <LATID>
LAT021B11

> <Supplier>
Chembridge

> <Suplier_CAT#>
5649515

> <Name>
Novel

> <Concentration_(mM)>
2.5

> <IC50_(µM)>
inactive

> <Yeast_Active?>
-

> <Pubchem_CID>
2254717

$$$$
