
  -ISIS-  08130814242D

 28 30  0  0  0  0  0  0  0  0999 V2000
   10.5292   -3.3042    0.0000 N   0  3  0  0  0  0  0  0  0  0  0  0
   10.5292   -2.3667    0.0000 C   0  0  0  0  0  0  0  0  0  0  0  0
    3.2042   -3.7792    0.0000 N   0  0  0  0  0  0  0  0  0  0  0  0
    4.0292   -2.3667    0.0000 C   0  0  0  0  0  0  0  0  0  0  0  0
    4.0292   -3.3042    0.0000 C   0  0  0  0  0  0  0  0  0  0  0  0
    7.2792   -2.3667    0.0000 C   0  0  0  0  0  0  0  0  0  0  0  0
    3.2042   -1.9000    0.0000 C   0  0  0  0  0  0  0  0  0  0  0  0
    9.7167   -1.9000    0.0000 C   0  0  0  0  0  0  0  0  0  0  0  0
    2.4000   -3.3042    0.0000 C   0  0  0  0  0  0  0  0  0  0  0  0
    5.6500   -2.3667    0.0000 N   0  0  0  0  0  0  0  0  0  0  0  0
   11.3375   -3.7875    0.0000 O   0  5  0  0  0  0  0  0  0  0  0  0
   11.3375   -1.9000    0.0000 C   0  0  0  0  0  0  0  0  0  0  0  0
    9.7167   -3.7875    0.0000 O   0  0  0  0  0  0  0  0  0  0  0  0
    2.4000   -2.3667    0.0000 C   0  0  0  0  0  0  0  0  0  0  0  0
    4.8375   -1.9000    0.0000 C   0  0  0  0  0  0  0  0  0  0  0  0
    8.9000   -2.3667    0.0000 O   0  0  0  0  0  0  0  0  0  0  0  0
    6.4667   -1.9000    0.0000 N   0  0  0  0  0  0  0  0  0  0  0  0
    7.2792   -3.3042    0.0000 O   0  0  0  0  0  0  0  0  0  0  0  0
    8.0875   -1.9000    0.0000 C   0  0  0  0  0  0  0  0  0  0  0  0
    9.7167   -0.9542    0.0000 C   0  0  0  0  0  0  0  0  0  0  0  0
    4.8375   -3.7792    0.0000 Cl  0  0  0  0  0  0  0  0  0  0  0  0
   11.3375   -0.9542    0.0000 C   0  0  0  0  0  0  0  0  0  0  0  0
   10.5292   -0.5000    0.0000 C   0  0  0  0  0  0  0  0  0  0  0  0
    1.6000   -3.7542    0.0000 C   0  0  0  0  0  0  0  0  0  0  0  0
    1.6000   -1.8875    0.0000 C   0  0  0  0  0  0  0  0  0  0  0  0
   12.1375   -0.5000    0.0000 C   0  0  0  0  0  0  0  0  0  0  0  0
    0.7667   -2.3667    0.0000 C   0  0  0  0  0  0  0  0  0  0  0  0
    0.7667   -3.3042    0.0000 C   0  0  0  0  0  0  0  0  0  0  0  0
  2  1  1  0  0  0  0
  3  5  2  0  0  0  0
  4 15  1  0  0  0  0
  5  4  1  0  0  0  0
  6 19  1  0  0  0  0
  7  4  2  0  0  0  0
  8  2  2  0  0  0  0
  9 14  2  0  0  0  0
 10 17  1  0  0  0  0
 11  1  1  0  0  0  0
 12  2  1  0  0  0  0
 13  1  2  0  0  0  0
 14  7  1  0  0  0  0
 15 10  2  0  0  0  0
 16  8  1  0  0  0  0
 17  6  1  0  0  0  0
 18  6  2  0  0  0  0
 19 16  1  0  0  0  0
 20  8  1  0  0  0  0
 21  5  1  0  0  0  0
 22 12  2  0  0  0  0
 23 22  1  0  0  0  0
 24  9  1  0  0  0  0
 25 14  1  0  0  0  0
 26 22  1  0  0  0  0
 27 25  2  0  0  0  0
 28 27  1  0  0  0  0
 20 23  2  0  0  0  0
  3  9  1  0  0  0  0
 28 24  2  0  0  0  0
M  CHG  2   1   1  11  -1
M  END
> <#>
1612

> <PLATE>
LAT021

> <ROW>
D

> <COL>
3

> <COORD>
D03

> <LATID>
LAT021D03

> <Supplier>
Chembridge

> <Suplier_CAT#>
5201352

> <Name>
Novel

> <Concentration_(mM)>
2.5

> <IC50_(µM)>
>100

> <Yeast_Active?>
-

> <Pubchem_CID>
1377599

$$$$
