
  -ISIS-  08130814242D

 18 19  0  0  0  0  0  0  0  0999 V2000
    0.3875    3.2333    0.0000 C   0  0  0  0  0  0  0  0  0  0  0  0
    0.3875    2.8333    0.0000 C   0  0  0  0  0  0  0  0  0  0  0  0
    0.0500    3.4333    0.0000 C   0  0  0  0  0  0  0  0  0  0  0  0
    0.7500    2.6333    0.0000 C   0  0  0  0  0  0  0  0  0  0  0  0
    0.0500    3.8333    0.0000 C   0  0  0  0  0  0  0  0  0  0  0  0
    0.0500    2.6333    0.0000 C   0  0  0  0  0  0  0  0  0  0  0  0
   -0.2958    3.2333    0.0000 C   0  0  0  0  0  0  0  0  0  0  0  0
    0.7500    2.2333    0.0000 C   0  0  0  0  0  0  0  0  0  0  0  0
   -0.2958    4.0292    0.0000 C   0  0  0  0  0  0  0  0  0  0  0  0
    0.7500    3.4333    0.0000 O   0  0  0  0  0  0  0  0  0  0  0  0
    0.3875    2.0333    0.0000 C   0  0  0  0  0  0  0  0  0  0  0  0
   -0.6333    3.8333    0.0000 C   0  0  0  0  0  0  0  0  0  0  0  0
    0.4000    4.0292    0.0000 O   0  0  0  0  0  0  0  0  0  0  0  0
    1.0875    2.8458    0.0000 O   0  0  0  0  0  0  0  0  0  0  0  0
    0.0500    2.2333    0.0000 C   0  0  0  0  0  0  0  0  0  0  0  0
   -0.6333    3.4333    0.0000 C   0  0  0  0  0  0  0  0  0  0  0  0
   -0.9833    4.0292    0.0000 O   0  0  0  0  0  0  0  0  0  0  0  0
    0.3875    1.6333    0.0000 O   0  0  0  0  0  0  0  0  0  0  0  0
  2  1  1  0  0  0  0
  3  1  1  0  0  0  0
  4  2  2  0  0  0  0
  5  3  1  0  0  0  0
  6  2  1  0  0  0  0
  7  3  2  0  0  0  0
  8  4  1  0  0  0  0
  9  5  2  0  0  0  0
 10  1  2  0  0  0  0
 11 15  1  0  0  0  0
 12 16  2  0  0  0  0
 13  5  1  0  0  0  0
 14  4  1  0  0  0  0
 15  6  2  0  0  0  0
 16  7  1  0  0  0  0
 17 12  1  0  0  0  0
 18 11  1  0  0  0  0
 12  9  1  0  0  0  0
  8 11  2  0  0  0  0
M  END
> <#>
1127

> <PLATE>
LAT015

> <ROW>
G

> <COL>
2

> <COORD>
G02

> <LATID>
LAT015G02

> <Supplier>
Chembridge

> <Suplier_CAT#>
5222210

> <Name>
Novel

> <Concentration_(mM)>
2.5

> <IC50_(µM)>
>100

> <Yeast_Active?>
-

> <Pubchem_CID>
8571

$$$$
