
  -ISIS-  08130814242D

 21 22  0  0  0  0  0  0  0  0999 V2000
    4.9167   -2.7542    0.0000 N   0  3  0  0  0  0  0  0  0  0  0  0
   -0.3458   -0.8500    0.0000 C   0  0  0  0  0  0  0  0  0  0  0  0
   -0.3458    0.0000    0.0000 C   0  0  0  0  0  0  0  0  0  0  0  0
    4.1792   -2.4000    0.0000 C   0  0  0  0  0  0  0  0  0  0  0  0
    0.3500   -1.2500    0.0000 C   0  0  0  0  0  0  0  0  0  0  0  0
   -1.0500    0.3833    0.0000 C   0  0  0  0  0  0  0  0  0  0  0  0
   -1.0500   -1.2500    0.0000 C   0  0  0  0  0  0  0  0  0  0  0  0
    5.0292   -3.6000    0.0000 O   0  5  0  0  0  0  0  0  0  0  0  0
    5.6292   -2.3667    0.0000 O   0  0  0  0  0  0  0  0  0  0  0  0
    1.2792   -0.9042    0.0000 C   0  0  0  0  0  0  0  0  0  0  0  0
    0.3500   -2.0667    0.0000 O   0  0  0  0  0  0  0  0  0  0  0  0
    4.1500   -1.5500    0.0000 C   0  0  0  0  0  0  0  0  0  0  0  0
    3.5000   -2.8500    0.0000 C   0  0  0  0  0  0  0  0  0  0  0  0
    1.7167   -1.5667    0.0000 O   0  0  0  0  0  0  0  0  0  0  0  0
   -1.7625    0.0000    0.0000 C   0  0  0  0  0  0  0  0  0  0  0  0
    2.6542   -1.6292    0.0000 C   0  0  0  0  0  0  0  0  0  0  0  0
    0.3500    0.3833    0.0000 O   0  0  0  0  0  0  0  0  0  0  0  0
   -1.7625   -0.8500    0.0000 C   0  0  0  0  0  0  0  0  0  0  0  0
    2.7500   -2.4500    0.0000 C   0  0  0  0  0  0  0  0  0  0  0  0
    3.4167   -1.1542    0.0000 C   0  0  0  0  0  0  0  0  0  0  0  0
   -2.4708    0.4500    0.0000 O   0  0  0  0  0  0  0  0  0  0  0  0
  2  5  1  0  0  0  0
  3  2  2  0  0  0  0
  4  1  1  0  0  0  0
  5 10  1  0  0  0  0
  6  3  1  0  0  0  0
  7  2  1  0  0  0  0
  8  1  1  0  0  0  0
  9  1  2  0  0  0  0
 10 14  1  0  0  0  0
 11  5  2  0  0  0  0
 12  4  1  0  0  0  0
 13  4  2  0  0  0  0
 14 16  1  0  0  0  0
 15 18  1  0  0  0  0
 16 19  2  0  0  0  0
 17  3  1  0  0  0  0
 18  7  2  0  0  0  0
 19 13  1  0  0  0  0
 20 12  2  0  0  0  0
 21 15  1  0  0  0  0
 20 16  1  0  0  0  0
 15  6  2  0  0  0  0
M  CHG  2   1   1   8  -1
M  END
> <#>
1275

> <PLATE>
LAT016

> <ROW>
C

> <COL>
11

> <COORD>
C11

> <LATID>
LAT016C11

> <Supplier>
Chembridge

> <Suplier_CAT#>
6655808

> <Name>
Novel

> <Concentration_(mM)>
2.5

> <IC50_(µM)>
inactive

> <Yeast_Active?>
-

> <Pubchem_CID>
886419

$$$$
