
  -ISIS-  08130814242D

 16 17  0  0  0  0  0  0  0  0999 V2000
    0.5167    0.4333    0.0000 C   0  0  0  0  0  0  0  0  0  0  0  0
    1.4000    0.9500    0.0000 C   0  0  0  0  0  0  0  0  0  0  0  0
    1.4000   -1.1042    0.0000 N   0  0  0  0  0  0  0  0  0  0  0  0
    2.3000    0.4333    0.0000 C   0  0  0  0  0  0  0  0  0  0  0  0
    0.5167   -0.5875    0.0000 C   0  0  0  0  0  0  0  0  0  0  0  0
    2.3000   -0.5875    0.0000 C   0  0  0  0  0  0  0  0  0  0  0  0
   -0.3625    0.9500    0.0000 C   0  0  0  0  0  0  0  0  0  0  0  0
   -0.3625   -1.1042    0.0000 C   0  0  0  0  0  0  0  0  0  0  0  0
    1.4000    1.9708    0.0000 Cl  0  0  0  0  0  0  0  0  0  0  0  0
   -1.2458    0.4333    0.0000 C   0  0  0  0  0  0  0  0  0  0  0  0
   -1.2458   -0.5875    0.0000 C   0  0  0  0  0  0  0  0  0  0  0  0
    3.2000    0.9500    0.0000 C   0  0  0  0  0  0  0  0  0  0  0  0
   -2.1458    0.9333    0.0000 O   0  0  0  0  0  0  0  0  0  0  0  0
    3.2167   -1.1042    0.0000 C   0  0  0  0  0  0  0  0  0  0  0  0
   -3.0208    0.4208    0.0000 C   0  0  0  0  0  0  0  0  0  0  0  0
    4.0875    0.4458    0.0000 C   0  0  0  0  0  0  0  0  0  0  0  0
  2  1  1  0  0  0  0
  3  5  1  0  0  0  0
  4  2  2  0  0  0  0
  5  1  2  0  0  0  0
  6  3  2  0  0  0  0
  7  1  1  0  0  0  0
  8  5  1  0  0  0  0
  9  2  1  0  0  0  0
 10  7  2  0  0  0  0
 11 10  1  0  0  0  0
 12  4  1  0  0  0  0
 13 10  1  0  0  0  0
 14  6  1  0  0  0  0
 15 13  1  0  0  0  0
 16 12  1  0  0  0  0
  8 11  2  0  0  0  0
  6  4  1  0  0  0  0
M  END
> <#>
911

> <PLATE>
LAT012

> <ROW>
G

> <COL>
5

> <COORD>
G05

> <LATID>
LAT012G05

> <Supplier>
Chembridge

> <Suplier_CAT#>
5687344

> <Name>
Novel

> <Sec_Name>
219_F05

> <Concentration_(mM)>
2.5

> <IC50_(µM)>
85

> <Yeast_Active?>
-

> <Pubchem_CID>
744099

$$$$
