
  -ISIS-  08130814242D

 22 24  0  0  0  0  0  0  0  0999 V2000
   -1.8458    1.7333    0.0000 C   0  0  0  0  0  0  0  0  0  0  0  0
    0.3542    1.7125    0.0000 C   0  0  0  0  0  0  0  0  0  0  0  0
    0.9167    1.4500    0.0000 O   0  0  0  0  0  0  0  0  0  0  0  0
   -2.4000    1.4125    0.0000 C   0  0  0  0  0  0  0  0  0  0  0  0
   -1.8458    2.3500    0.0000 C   0  0  0  0  0  0  0  0  0  0  0  0
    0.4167    2.3333    0.0000 C   0  0  0  0  0  0  0  0  0  0  0  0
   -1.3000    1.4125    0.0000 C   0  0  0  0  0  0  0  0  0  0  0  0
   -0.7625    1.7125    0.0000 C   0  0  0  0  0  0  0  0  0  0  0  0
    1.3542    1.9125    0.0000 C   0  0  0  0  0  0  0  0  0  0  0  0
    1.0375    2.4708    0.0000 C   0  0  0  0  0  0  0  0  0  0  0  0
   -0.2000    1.3958    0.0000 C   0  0  0  0  0  0  0  0  0  0  0  0
   -2.9458    1.7125    0.0000 C   0  0  0  0  0  0  0  0  0  0  0  0
   -2.4000    2.6708    0.0000 C   0  0  0  0  0  0  0  0  0  0  0  0
   -2.9458    2.3708    0.0000 C   0  0  0  0  0  0  0  0  0  0  0  0
   -1.3000    0.7708    0.0000 O   0  0  0  0  0  0  0  0  0  0  0  0
   -1.3000    2.6958    0.0000 O   0  0  0  0  0  0  0  0  0  0  0  0
    1.9792    1.9125    0.0000 C   0  0  0  0  0  0  0  0  0  0  0  0
    1.3375    3.0208    0.0000 C   0  0  0  0  0  0  0  0  0  0  0  0
   -3.4833    1.3708    0.0000 C   0  0  0  0  0  0  0  0  0  0  0  0
   -3.4833    2.7125    0.0000 C   0  0  0  0  0  0  0  0  0  0  0  0
    1.9792    3.0208    0.0000 C   0  0  0  0  0  0  0  0  0  0  0  0
    2.3000    2.4708    0.0000 C   0  0  0  0  0  0  0  0  0  0  0  0
  2 11  1  0  0  0  0
  3  2  1  0  0  0  0
  4  1  1  0  0  0  0
  5  1  2  0  0  0  0
  6  2  2  0  0  0  0
  7  1  1  0  0  0  0
  8  7  1  0  0  0  0
  9  3  1  0  0  0  0
 10  6  1  0  0  0  0
 11  8  2  0  0  0  0
 12  4  2  0  0  0  0
 13  5  1  0  0  0  0
 14 13  2  0  0  0  0
 15  7  2  0  0  0  0
 16  5  1  0  0  0  0
 17  9  1  0  0  0  0
 18 10  1  0  0  0  0
 19 12  1  0  0  0  0
 20 14  1  0  0  0  0
 21 18  2  0  0  0  0
 22 17  2  0  0  0  0
 14 12  1  0  0  0  0
  9 10  2  0  0  0  0
 21 22  1  0  0  0  0
M  END
> <#>
1291

> <PLATE>
LAT017

> <ROW>
C

> <COL>
3

> <COORD>
C03

> <LATID>
LAT017C03

> <Supplier>
Chembridge

> <Suplier_CAT#>
6873655

> <Name>
Novel

> <Concentration_(mM)>
2.5

> <IC50_(µM)>
inactive

> <Yeast_Active?>
-

> <Pubchem_CID>
2916795

$$$$
