
  -ISIS-  08130814242D

 13 13  0  0  0  0  0  0  0  0999 V2000
   -0.2208    0.6125    0.0000 C   0  0  0  0  0  0  0  0  0  0  0  0
   -0.2208   -0.2500    0.0000 C   0  0  0  0  0  0  0  0  0  0  0  0
   -0.9458   -0.6667    0.0000 C   0  0  0  0  0  0  0  0  0  0  0  0
   -1.6625   -0.2500    0.0000 C   0  0  0  0  0  0  0  0  0  0  0  0
    0.5167    1.0333    0.0000 C   0  0  0  0  0  0  0  0  0  0  0  0
   -0.9458    1.0333    0.0000 C   0  0  0  0  0  0  0  0  0  0  0  0
   -1.6625    0.6125    0.0000 C   0  0  0  0  0  0  0  0  0  0  0  0
    1.2375    0.6125    0.0000 O   0  0  0  0  0  0  0  0  0  0  0  0
   -0.9458   -1.5042    0.0000 I   0  0  0  0  0  0  0  0  0  0  0  0
    0.5167   -0.6667    0.0000 O   0  0  0  0  0  0  0  0  0  0  0  0
   -2.4000    1.0333    0.0000 I   0  0  0  0  0  0  0  0  0  0  0  0
    0.5167    1.8708    0.0000 C   0  0  0  0  0  0  0  0  0  0  0  0
    1.2375    2.2958    0.0000 C   0  0  0  0  0  0  0  0  0  0  0  0
  2  1  2  0  0  0  0
  3  2  1  0  0  0  0
  4  7  1  0  0  0  0
  5  1  1  0  0  0  0
  6  1  1  0  0  0  0
  7  6  2  0  0  0  0
  8  5  2  0  0  0  0
  9  3  1  0  0  0  0
 10  2  1  0  0  0  0
 11  7  1  0  0  0  0
 12  5  1  0  0  0  0
 13 12  1  0  0  0  0
  3  4  2  0  0  0  0
M  END
> <#>
1170

> <PLATE>
LAT015

> <ROW>
B

> <COL>
8

> <COORD>
B08

> <LATID>
LAT015B08

> <Supplier>
Chembridge

> <Suplier_CAT#>
5561589

> <Name>
Novel

> <Sec_Name>
169_B11

> <Concentration_(mM)>
2.5

> <IC50_(µM)>
>100

> <Yeast_Active?>
-

> <Pubchem_CID>
2852784

$$$$
