
  -ISIS-  08130814242D

 20 21  0  0  0  0  0  0  0  0999 V2000
    7.5042   -5.4875    0.0000 S   0  0  3  0  0  0  0  0  0  0  0  0
    6.8625   -5.8625    0.0000 C   0  0  0  0  0  0  0  0  0  0  0  0
    4.9125   -5.4792    0.0000 S   0  0  3  0  0  0  0  0  0  0  0  0
    5.5667   -6.6125    0.0000 C   0  0  0  0  0  0  0  0  0  0  0  0
    5.5667   -5.8625    0.0000 C   0  0  0  0  0  0  0  0  0  0  0  0
    8.1542   -5.8625    0.0000 N   0  0  0  0  0  0  0  0  0  0  0  0
    4.9125   -6.9875    0.0000 C   0  0  3  0  0  0  0  0  0  0  0  0
    6.2167   -5.4875    0.0000 C   0  0  0  0  0  0  0  0  0  0  0  0
    6.8625   -6.6125    0.0000 C   0  0  0  0  0  0  0  0  0  0  0  0
    6.2167   -6.9875    0.0000 C   0  0  0  0  0  0  0  0  0  0  0  0
    7.9917   -4.9125    0.0000 O   0  0  0  0  0  0  0  0  0  0  0  0
    7.0250   -4.9042    0.0000 O   0  0  0  0  0  0  0  0  0  0  0  0
    7.5042   -6.9875    0.0000 N   0  0  0  0  0  0  0  0  0  0  0  0
    8.1542   -6.6125    0.0000 C   0  0  0  0  0  0  0  0  0  0  0  0
    5.5167   -4.7417    0.0000 O   0  0  0  0  0  0  0  0  0  0  0  0
    4.4792   -4.6500    0.0000 O   0  0  0  0  0  0  0  0  0  0  0  0
    3.9542   -5.4917    0.0000 N   0  0  0  0  0  0  0  0  0  0  0  0
    4.5292   -6.3375    0.0000 F   0  0  0  0  0  0  0  0  0  0  0  0
    5.2917   -7.6417    0.0000 F   0  0  0  0  0  0  0  0  0  0  0  0
    4.2542   -7.3667    0.0000 F   0  0  0  0  0  0  0  0  0  0  0  0
  2  1  1  0  0  0  0
  3  5  1  0  0  0  0
  4 10  2  0  0  0  0
  5  8  2  0  0  0  0
  6  1  1  0  0  0  0
  7  4  1  0  0  0  0
  8  2  1  0  0  0  0
  9  2  2  0  0  0  0
 10  9  1  0  0  0  0
 11  1  2  0  0  0  0
 12  1  2  0  0  0  0
 13 14  1  0  0  0  0
 14  6  1  0  0  0  0
 15  3  2  0  0  0  0
 16  3  2  0  0  0  0
 17  3  1  0  0  0  0
 18  7  1  0  0  0  0
 19  7  1  0  0  0  0
 20  7  1  0  0  0  0
  9 13  1  0  0  0  0
  5  4  1  0  0  0  0
M  END
> <#>
61

> <PLATE>
LAT001

> <ROW>
E

> <COL>
9

> <COORD>
E09

> <LATID>
LAT001E09

> <Supplier>
Microsource

> <Suplier_CAT#>
01500341

> <Name>
Hydroflumethiazide

> <Concentration_(mM)>
2.5

> <IC50_(µM)>
>100

> <Yeast_Active?>
-

> <Pubchem_CID>
3647

> <Description>
Antihypertensive, Diuretic

$$$$
