
  -ISIS-  08130814242D

 15 15  0  0  0  0  0  0  0  0999 V2000
    2.7542    0.1000    0.0000 C   0  0  0  0  0  0  0  0  0  0  0  0
    3.9375    0.8000    0.0000 C   0  0  0  0  0  0  0  0  0  0  0  0
    2.7542   -1.2292    0.0000 C   0  0  0  0  0  0  0  0  0  0  0  0
    1.6375    0.7708    0.0000 C   0  0  0  0  0  0  0  0  0  0  0  0
    5.0875    0.1500    0.0000 O   0  0  0  0  0  0  0  0  0  0  0  0
    1.6375   -1.8792    0.0000 C   0  0  0  0  0  0  0  0  0  0  0  0
    0.4875    0.1333    0.0000 C   0  0  0  0  0  0  0  0  0  0  0  0
    0.4875   -1.2292    0.0000 C   0  0  0  0  0  0  0  0  0  0  0  0
    3.9375   -1.9042    0.0000 O   0  0  0  0  0  0  0  0  0  0  0  0
   -0.6625    0.8333    0.0000 O   0  0  0  0  0  0  0  0  0  0  0  0
    3.9042    2.1333    0.0000 C   0  0  0  0  0  0  0  0  0  0  0  0
   -1.8458    0.1833    0.0000 C   0  0  0  0  0  0  0  0  0  0  0  0
   -2.9958    0.8958    0.0000 C   0  0  0  0  0  0  0  0  0  0  0  0
   -4.1458    0.2708    0.0000 C   0  0  0  0  0  0  0  0  0  0  0  0
   -5.2708    0.9833    0.0000 C   0  0  0  0  0  0  0  0  0  0  0  0
  2  1  1  0  0  0  0
  3  1  2  0  0  0  0
  4  1  1  0  0  0  0
  5  2  2  0  0  0  0
  6  3  1  0  0  0  0
  7  4  2  0  0  0  0
  8  7  1  0  0  0  0
  9  3  1  0  0  0  0
 10  7  1  0  0  0  0
 11  2  1  0  0  0  0
 12 10  1  0  0  0  0
 13 12  1  0  0  0  0
 14 13  1  0  0  0  0
 15 14  1  0  0  0  0
  6  8  2  0  0  0  0
M  END
> <#>
1134

> <PLATE>
LAT015

> <ROW>
F

> <COL>
3

> <COORD>
F03

> <LATID>
LAT015F03

> <Supplier>
Chembridge

> <Suplier_CAT#>
5235233

> <Name>
Novel

> <Concentration_(mM)>
2.5

> <IC50_(µM)>
>100

> <Yeast_Active?>
-

> <Pubchem_CID>
2274328

$$$$
