
  -ISIS-  08130814242D

 21 23  0  0  0  0  0  0  0  0999 V2000
    1.1542    0.3833    0.0000 C   0  0  0  0  0  0  0  0  0  0  0  0
    0.7792    0.9458    0.0000 N   0  0  0  0  0  0  0  0  0  0  0  0
    0.7792   -0.1792    0.0000 N   0  0  3  0  0  0  0  0  0  0  0  0
    1.8542    0.4000    0.0000 C   0  0  3  0  0  0  0  0  0  0  0  0
    0.1167    0.0458    0.0000 C   0  0  0  0  0  0  0  0  0  0  0  0
    0.1167    0.7208    0.0000 C   0  0  0  0  0  0  0  0  0  0  0  0
    2.1917    0.9833    0.0000 C   0  0  0  0  0  0  0  0  0  0  0  0
    2.8792    0.9833    0.0000 C   0  0  0  0  0  0  0  0  0  0  0  0
    1.0000   -0.8542    0.0000 C   0  0  0  0  0  0  0  0  0  0  0  0
    2.1917   -0.2167    0.0000 O   0  0  0  0  0  0  0  0  0  0  0  0
    3.2167    0.3833    0.0000 O   0  0  0  0  0  0  0  0  0  0  0  0
    1.8542    1.5833    0.0000 C   0  0  0  0  0  0  0  0  0  0  0  0
   -0.4833   -0.3167    0.0000 C   0  0  0  0  0  0  0  0  0  0  0  0
   -0.4833    1.0625    0.0000 C   0  0  0  0  0  0  0  0  0  0  0  0
    3.2167    1.5833    0.0000 C   0  0  0  0  0  0  0  0  0  0  0  0
    3.9000    0.3833    0.0000 C   0  0  0  0  0  0  0  0  0  0  0  0
    1.6792   -1.0000    0.0000 C   0  0  0  0  0  0  0  0  0  0  0  0
    2.1917    2.1833    0.0000 C   0  0  0  0  0  0  0  0  0  0  0  0
   -1.0833    0.0458    0.0000 C   0  0  0  0  0  0  0  0  0  0  0  0
   -1.0833    0.7208    0.0000 C   0  0  0  0  0  0  0  0  0  0  0  0
    2.8792    2.1833    0.0000 C   0  0  0  0  0  0  0  0  0  0  0  0
  2  1  2  0  0  0  0
  3  1  1  0  0  0  0
  4  1  1  0  0  0  0
  5  3  1  0  0  0  0
  6  2  1  0  0  0  0
  7  4  1  0  0  0  0
  8  7  2  0  0  0  0
  9  3  1  0  0  0  0
 10  4  1  0  0  0  0
 11  8  1  0  0  0  0
 12  7  1  0  0  0  0
 13  5  1  0  0  0  0
 14  6  1  0  0  0  0
 15  8  1  0  0  0  0
 16 11  1  0  0  0  0
 17  9  1  0  0  0  0
 18 12  2  0  0  0  0
 19 13  2  0  0  0  0
 20 14  2  0  0  0  0
 21 18  1  0  0  0  0
  6  5  2  0  0  0  0
 20 19  1  0  0  0  0
 15 21  2  0  0  0  0
M  END
> <#>
805

> <PLATE>
LAT011

> <ROW>
E

> <COL>
2

> <COORD>
E02

> <LATID>
LAT011E02

> <Supplier>
Chembridge

> <Suplier_CAT#>
5658071

> <Name>
Novel

> <Sec_Name>
204_D07

> <Concentration_(mM)>
2.5

> <IC50_(µM)>
inactive

> <Yeast_Active?>
-

> <Pubchem_CID>
619714

$$$$
