
  -ISIS-  08130814242D

 17 18  0  0  0  0  0  0  0  0999 V2000
    0.1167  -14.5542    0.0000 C   0  0  0  0  0  0  0  0  0  0  0  0
   -0.3875  -14.8542    0.0000 N   0  0  0  0  0  0  0  0  0  0  0  0
   -0.0083  -13.9792    0.0000 N   0  0  0  0  0  0  0  0  0  0  0  0
   -0.5958  -13.9250    0.0000 N   0  0  0  0  0  0  0  0  0  0  0  0
   -0.8333  -14.4667    0.0000 C   0  0  0  0  0  0  0  0  0  0  0  0
    2.1417  -14.3292    0.0000 C   0  0  0  0  0  0  0  0  0  0  0  0
    2.6792  -14.5667    0.0000 C   0  0  0  0  0  0  0  0  0  0  0  0
    3.1500  -14.2167    0.0000 C   0  0  0  0  0  0  0  0  0  0  0  0
    1.6667  -14.6792    0.0000 C   0  0  0  0  0  0  0  0  0  0  0  0
    0.6542  -14.7917    0.0000 S   0  0  0  0  0  0  0  0  0  0  0  0
    3.0875  -13.6375    0.0000 C   0  0  0  0  0  0  0  0  0  0  0  0
    1.1292  -14.4417    0.0000 C   0  0  0  0  0  0  0  0  0  0  0  0
    2.0667  -13.7500    0.0000 C   0  0  0  0  0  0  0  0  0  0  0  0
    1.7292  -15.2625    0.0000 O   0  0  0  0  0  0  0  0  0  0  0  0
    2.5417  -13.4000    0.0000 C   0  0  0  0  0  0  0  0  0  0  0  0
    3.6875  -14.4542    0.0000 O   0  0  0  0  0  0  0  0  0  0  0  0
    3.5542  -13.2875    0.0000 O   0  0  0  0  0  0  0  0  0  0  0  0
  2  1  1  0  0  0  0
  3  1  2  0  0  0  0
  4  3  1  0  0  0  0
  5  2  1  0  0  0  0
  6  9  1  0  0  0  0
  7  6  2  0  0  0  0
  8  7  1  0  0  0  0
  9 12  1  0  0  0  0
 10  1  1  0  0  0  0
 11 15  1  0  0  0  0
 12 10  1  0  0  0  0
 13  6  1  0  0  0  0
 14  9  2  0  0  0  0
 15 13  2  0  0  0  0
 16  8  1  0  0  0  0
 17 11  1  0  0  0  0
  4  5  2  0  0  0  0
  8 11  2  0  0  0  0
M  END
> <#>
1301

> <PLATE>
LAT017

> <ROW>
E

> <COL>
4

> <COORD>
E04

> <LATID>
LAT017E04

> <Supplier>
Chembridge

> <Suplier_CAT#>
6597499

> <Name>
Novel

> <Concentration_(mM)>
2.5

> <IC50_(µM)>
>100

> <Yeast_Active?>
-

> <Pubchem_CID>
NULL

$$$$
