
  -ISIS-  08130814242D

 25 27  0  0  0  0  0  0  0  0999 V2000
    4.2042    1.2333    0.0000 N   0  0  0  0  0  0  0  0  0  0  0  0
    4.9167    1.4625    0.0000 C   0  0  0  0  0  0  0  0  0  0  0  0
    3.7667    1.8375    0.0000 C   0  0  0  0  0  0  0  0  0  0  0  0
    4.2042    2.4458    0.0000 N   0  0  0  0  0  0  0  0  0  0  0  0
    4.9167    2.2125    0.0000 O   0  0  0  0  0  0  0  0  0  0  0  0
    0.7667    1.8375    0.0000 C   0  0  3  0  0  0  0  0  0  0  0  0
    5.5292    1.0208    0.0000 C   0  0  0  0  0  0  0  0  0  0  0  0
    6.2125    1.3333    0.0000 N   0  0  0  0  0  0  0  0  0  0  0  0
    3.0167    1.8375    0.0000 C   0  0  0  0  0  0  0  0  0  0  0  0
    1.5167    1.8375    0.0000 C   0  0  0  0  0  0  0  0  0  0  0  0
    8.1125    0.7500    0.0000 N   0  0  0  0  0  0  0  0  0  0  0  0
    5.4500    0.2750    0.0000 O   0  0  0  0  0  0  0  0  0  0  0  0
    1.8917    1.1875    0.0000 C   0  0  0  0  0  0  0  0  0  0  0  0
    1.8917    2.4875    0.0000 C   0  0  0  0  0  0  0  0  0  0  0  0
    2.6417    1.1875    0.0000 C   0  0  0  0  0  0  0  0  0  0  0  0
    2.6417    2.4875    0.0000 C   0  0  0  0  0  0  0  0  0  0  0  0
    0.5667    2.5625    0.0000 F   0  0  0  0  0  0  0  0  0  0  0  0
    0.0292    1.7083    0.0000 F   0  0  0  0  0  0  0  0  0  0  0  0
    0.8292    1.0958    0.0000 F   0  0  0  0  0  0  0  0  0  0  0  0
    6.8167    0.8875    0.0000 C   0  0  0  0  0  0  0  0  0  0  0  0
    7.5042    1.1958    0.0000 C   0  0  0  0  0  0  0  0  0  0  0  0
    8.7917    1.0583    0.0000 C   0  0  0  0  0  0  0  0  0  0  0  0
    7.5792    1.9375    0.0000 C   0  0  0  0  0  0  0  0  0  0  0  0
    8.8750    1.8000    0.0000 C   0  0  0  0  0  0  0  0  0  0  0  0
    8.2667    2.2458    0.0000 C   0  0  0  0  0  0  0  0  0  0  0  0
  2  1  2  0  0  0  0
  3  1  1  0  0  0  0
  4  3  2  0  0  0  0
  5  2  1  0  0  0  0
  6 10  1  0  0  0  0
  7  2  1  0  0  0  0
  8  7  1  0  0  0  0
  9  3  1  0  0  0  0
 10 14  2  0  0  0  0
 11 21  1  0  0  0  0
 12  7  2  0  0  0  0
 13 15  2  0  0  0  0
 14 16  1  0  0  0  0
 15  9  1  0  0  0  0
 16  9  2  0  0  0  0
 17  6  1  0  0  0  0
 18  6  1  0  0  0  0
 19  6  1  0  0  0  0
 20  8  1  0  0  0  0
 21 20  1  0  0  0  0
 22 11  2  0  0  0  0
 23 21  2  0  0  0  0
 24 25  2  0  0  0  0
 25 23  1  0  0  0  0
  5  4  1  0  0  0  0
 10 13  1  0  0  0  0
 24 22  1  0  0  0  0
M  END
> <#>
1424

> <PLATE>
LAT018

> <ROW>
H

> <COL>
9

> <COORD>
H09

> <LATID>
LAT018H09

> <Supplier>
Chembridge

> <Suplier_CAT#>
9061010

> <Name>
Novel

> <Concentration_(mM)>
2.5

> <IC50_(µM)>
>100

> <Yeast_Active?>
-

> <Pubchem_CID>
1512157

$$$$
