
  -ISIS-  08130814242D

 27 29  0  0  0  0  0  0  0  0999 V2000
    7.1917   -4.0542    0.0000 S   0  0  3  0  0  0  0  0  0  0  0  0
    7.9042   -4.4667    0.0000 N   0  0  0  0  0  0  0  0  0  0  0  0
    7.9000   -5.2917    0.0000 C   0  0  0  0  0  0  0  0  0  0  0  0
    3.6375   -2.8292    0.0000 C   0  0  0  0  0  0  0  0  0  0  0  0
    2.9167   -2.4167    0.0000 C   0  0  0  0  0  0  0  0  0  0  0  0
    7.2375   -5.7792    0.0000 N   0  0  0  0  0  0  0  0  0  0  0  0
    2.9167   -1.5917    0.0000 C   0  0  0  0  0  0  0  0  0  0  0  0
    3.6292   -1.1750    0.0000 C   0  0  0  0  0  0  0  0  0  0  0  0
    6.4750   -3.6417    0.0000 C   0  0  0  0  0  0  0  0  0  0  0  0
    4.3500   -2.4167    0.0000 N   0  0  0  0  0  0  0  0  0  0  0  0
    8.5667   -5.7792    0.0000 S   0  0  0  0  0  0  0  0  0  0  0  0
    7.6375   -3.4667    0.0000 O   0  0  0  0  0  0  0  0  0  0  0  0
    6.7292   -4.7167    0.0000 O   0  0  0  0  0  0  0  0  0  0  0  0
    7.4917   -6.5625    0.0000 C   0  0  0  0  0  0  0  0  0  0  0  0
    3.6375   -3.6542    0.0000 O   0  0  0  0  0  0  0  0  0  0  0  0
    8.3167   -6.5667    0.0000 C   0  0  0  0  0  0  0  0  0  0  0  0
    3.6292   -0.3500    0.0000 O   0  0  0  0  0  0  0  0  0  0  0  0
    6.4667   -2.8167    0.0000 C   0  0  0  0  0  0  0  0  0  0  0  0
    5.7667   -4.0542    0.0000 C   0  0  0  0  0  0  0  0  0  0  0  0
    5.0625   -2.8292    0.0000 C   0  0  0  0  0  0  0  0  0  0  0  0
    4.3500   -1.5792    0.0000 O   0  0  0  0  0  0  0  0  0  0  0  0
    5.7625   -2.4167    0.0000 C   0  0  0  0  0  0  0  0  0  0  0  0
    5.0542   -3.6417    0.0000 C   0  0  0  0  0  0  0  0  0  0  0  0
    2.2042   -2.8292    0.0000 C   0  0  0  0  0  0  0  0  0  0  0  0
    2.2042   -1.1792    0.0000 C   0  0  0  0  0  0  0  0  0  0  0  0
    1.4917   -2.4167    0.0000 C   0  0  0  0  0  0  0  0  0  0  0  0
    1.4917   -1.5917    0.0000 C   0  0  0  0  0  0  0  0  0  0  0  0
  2  1  1  0  0  0  0
  3  2  1  0  0  0  0
  4 10  1  0  0  0  0
  5  4  1  0  0  0  0
  6  3  2  0  0  0  0
  7  5  1  0  0  0  0
  8  7  1  0  0  0  0
  9  1  1  0  0  0  0
 10 20  1  0  0  0  0
 11  3  1  0  0  0  0
 12  1  2  0  0  0  0
 13  1  2  0  0  0  0
 14  6  1  0  0  0  0
 15  4  2  0  0  0  0
 16 11  1  0  0  0  0
 17  8  2  0  0  0  0
 18  9  1  0  0  0  0
 19  9  2  0  0  0  0
 20 23  2  0  0  0  0
 21  8  1  0  0  0  0
 22 18  2  0  0  0  0
 23 19  1  0  0  0  0
 24  5  2  0  0  0  0
 25  7  2  0  0  0  0
 26 24  1  0  0  0  0
 27 26  2  0  0  0  0
 20 22  1  0  0  0  0
 16 14  2  0  0  0  0
 27 25  1  0  0  0  0
M  END
> <#>
88

> <PLATE>
LAT002

> <ROW>
H

> <COL>
2

> <COORD>
H02

> <LATID>
LAT002H02

> <Supplier>
Microsource

> <Suplier_CAT#>
01502021

> <Name>
Phthalylsulfathiazole

> <Concentration_(mM)>
2.5

> <IC50_(µM)>
0.93

> <Yeast_Active?>
-

> <Pubchem_CID>
4806

> <Description>
Antimicrobial

$$$$
