
  -ISIS-  08130814242D

 21 22  0  0  0  0  0  0  0  0999 V2000
   13.8000   -2.3042    0.0000 C   0  0  0  0  0  0  0  0  0  0  0  0
   13.1375   -2.6875    0.0000 C   0  0  0  0  0  0  0  0  0  0  0  0
   17.0375   -1.1792    0.0000 C   0  0  0  0  0  0  0  0  0  0  0  0
   17.6875   -1.5500    0.0000 N   0  0  0  0  0  0  0  0  0  0  0  0
   13.8000   -1.5542    0.0000 C   0  0  0  0  0  0  0  0  0  0  0  0
   18.9667   -0.0292    0.0000 N   0  0  0  0  0  0  0  0  0  0  0  0
   17.0292   -0.4292    0.0000 O   0  0  0  0  0  0  0  0  0  0  0  0
   13.1375   -1.1792    0.0000 C   0  0  0  0  0  0  0  0  0  0  0  0
   12.5000   -2.3042    0.0000 C   0  0  0  0  0  0  0  0  0  0  0  0
   14.4500   -2.6875    0.0000 Cl  0  0  0  0  0  0  0  0  0  0  0  0
   18.3375   -1.1667    0.0000 C   0  0  0  0  0  0  0  0  0  0  0  0
   12.5000   -1.5542    0.0000 C   0  0  0  0  0  0  0  0  0  0  0  0
   11.8500   -2.6875    0.0000 Cl  0  0  0  0  0  0  0  0  0  0  0  0
   14.4500   -1.1792    0.0000 O   0  0  0  0  0  0  0  0  0  0  0  0
   18.3292   -0.4167    0.0000 C   0  0  0  0  0  0  0  0  0  0  0  0
   16.3875   -1.5542    0.0000 C   0  0  0  0  0  0  0  0  0  0  0  0
   19.6292   -0.4042    0.0000 C   0  0  0  0  0  0  0  0  0  0  0  0
   15.1000   -1.5542    0.0000 C   0  0  0  0  0  0  0  0  0  0  0  0
   18.9875   -1.5375    0.0000 C   0  0  0  0  0  0  0  0  0  0  0  0
   15.7500   -1.1792    0.0000 C   0  0  0  0  0  0  0  0  0  0  0  0
   19.6292   -1.1542    0.0000 C   0  0  0  0  0  0  0  0  0  0  0  0
  2  1  2  0  0  0  0
  3 16  1  0  0  0  0
  4  3  1  0  0  0  0
  5  1  1  0  0  0  0
  6 15  2  0  0  0  0
  7  3  2  0  0  0  0
  8  5  2  0  0  0  0
  9  2  1  0  0  0  0
 10  1  1  0  0  0  0
 11  4  1  0  0  0  0
 12  8  1  0  0  0  0
 13  9  1  0  0  0  0
 14  5  1  0  0  0  0
 15 11  1  0  0  0  0
 16 20  1  0  0  0  0
 17 21  2  0  0  0  0
 18 14  1  0  0  0  0
 19 11  2  0  0  0  0
 20 18  1  0  0  0  0
 21 19  1  0  0  0  0
 12  9  2  0  0  0  0
 17  6  1  0  0  0  0
M  END
> <#>
691

> <PLATE>
LAT009

> <ROW>
C

> <COL>
8

> <COORD>
C08

> <LATID>
LAT009C08

> <Supplier>
Chembridge

> <Suplier_CAT#>
5555480

> <Name>
Novel

> <Sec_Name>
165_D06

> <Concentration_(mM)>
2.5

> <IC50_(µM)>
6.5

> <Yeast_Active?>
-

> <Pubchem_CID>
1928491

$$$$
