
  -ISIS-  08130814242D

 21 23  0  0  0  0  0  0  0  0999 V2000
    3.4542    0.9333    0.0000 C   0  0  0  0  0  0  0  0  0  0  0  0
    3.9000    0.3208    0.0000 N   0  0  0  0  0  0  0  0  0  0  0  0
    3.9000    1.5375    0.0000 C   0  0  0  0  0  0  0  0  0  0  0  0
    4.6125    1.3083    0.0000 C   0  0  0  0  0  0  0  0  0  0  0  0
    4.6125    0.5583    0.0000 O   0  0  0  0  0  0  0  0  0  0  0  0
    2.7042    0.9333    0.0000 C   0  0  0  0  0  0  0  0  0  0  0  0
    2.3292    1.5833    0.0000 N   0  0  0  0  0  0  0  0  0  0  0  0
    1.5792    2.8833    0.0000 N   0  0  0  0  0  0  0  0  0  0  0  0
    5.2167    1.7458    0.0000 C   0  0  0  0  0  0  0  0  0  0  0  0
    2.3292    0.2833    0.0000 O   0  0  0  0  0  0  0  0  0  0  0  0
    1.5792    1.5833    0.0000 C   0  0  0  0  0  0  0  0  0  0  0  0
    1.2042    2.2333    0.0000 C   0  0  0  0  0  0  0  0  0  0  0  0
    1.2042    3.5333    0.0000 C   0  0  0  0  0  0  0  0  0  0  0  0
    5.9042    1.4458    0.0000 C   0  0  0  0  0  0  0  0  0  0  0  0
    5.1417    2.4958    0.0000 C   0  0  0  0  0  0  0  0  0  0  0  0
    0.4542    2.2333    0.0000 C   0  0  0  0  0  0  0  0  0  0  0  0
    0.4542    3.5333    0.0000 C   0  0  0  0  0  0  0  0  0  0  0  0
    6.5125    1.8833    0.0000 C   0  0  0  0  0  0  0  0  0  0  0  0
    5.7500    2.9333    0.0000 C   0  0  0  0  0  0  0  0  0  0  0  0
    0.0792    2.8833    0.0000 C   0  0  0  0  0  0  0  0  0  0  0  0
    6.4292    2.6250    0.0000 C   0  0  0  0  0  0  0  0  0  0  0  0
  2  1  2  0  0  0  0
  3  1  1  0  0  0  0
  4  3  2  0  0  0  0
  5  2  1  0  0  0  0
  6  1  1  0  0  0  0
  7  6  1  0  0  0  0
  8 12  2  0  0  0  0
  9  4  1  0  0  0  0
 10  6  2  0  0  0  0
 11  7  1  0  0  0  0
 12 11  1  0  0  0  0
 13  8  1  0  0  0  0
 14  9  2  0  0  0  0
 15  9  1  0  0  0  0
 16 12  1  0  0  0  0
 17 20  1  0  0  0  0
 18 14  1  0  0  0  0
 19 15  2  0  0  0  0
 20 16  2  0  0  0  0
 21 19  1  0  0  0  0
  4  5  1  0  0  0  0
 18 21  2  0  0  0  0
 13 17  2  0  0  0  0
M  END
> <#>
1539

> <PLATE>
LAT020

> <ROW>
C

> <COL>
4

> <COORD>
C04

> <LATID>
LAT020C04

> <Supplier>
Chembridge

> <Suplier_CAT#>
7905064

> <Name>
Novel

> <Concentration_(mM)>
2.5

> <IC50_(µM)>
98

> <Yeast_Active?>
-

> <Pubchem_CID>
973877

$$$$
