
  -ISIS-  08130814242D

 23 25  0  0  0  0  0  0  0  0999 V2000
   -0.6000    1.3958    0.0000 C   0  0  0  0  0  0  0  0  0  0  0  0
   -1.2833    1.7958    0.0000 N   0  0  0  0  0  0  0  0  0  0  0  0
   -1.9708    1.3958    0.0000 C   0  0  0  0  0  0  0  0  0  0  0  0
    0.0792    1.7833    0.0000 N   0  0  3  0  0  0  0  0  0  0  0  0
    1.4375    2.5708    0.0000 N   0  0  3  0  0  0  0  0  0  0  0  0
    2.1167    2.9708    0.0000 C   0  0  0  0  0  0  0  0  0  0  0  0
   -1.9708    0.6000    0.0000 C   0  0  0  0  0  0  0  0  0  0  0  0
   -1.2833    0.2125    0.0000 C   0  0  0  0  0  0  0  0  0  0  0  0
   -0.6000    0.6000    0.0000 C   0  0  0  0  0  0  0  0  0  0  0  0
   -2.6500    1.7708    0.0000 C   0  0  0  0  0  0  0  0  0  0  0  0
   -2.6500    0.2000    0.0000 C   0  0  0  0  0  0  0  0  0  0  0  0
    0.7542    2.9625    0.0000 C   0  0  0  0  0  0  0  0  0  0  0  0
    1.4375    1.7833    0.0000 C   0  0  0  0  0  0  0  0  0  0  0  0
    0.0792    2.5625    0.0000 C   0  0  0  0  0  0  0  0  0  0  0  0
    0.7542    1.3833    0.0000 C   0  0  0  0  0  0  0  0  0  0  0  0
    2.1042    3.7500    0.0000 O   0  0  0  0  0  0  0  0  0  0  0  0
   -3.3458    1.3958    0.0000 C   0  0  0  0  0  0  0  0  0  0  0  0
    2.8042    2.5958    0.0000 O   0  0  0  0  0  0  0  0  0  0  0  0
   -3.3458    0.6000    0.0000 C   0  0  0  0  0  0  0  0  0  0  0  0
   -4.0208    1.7833    0.0000 Cl  0  0  0  0  0  0  0  0  0  0  0  0
   -1.2833   -0.5667    0.0000 C   0  0  0  0  0  0  0  0  0  0  0  0
    3.4875    2.9958    0.0000 C   0  0  0  0  0  0  0  0  0  0  0  0
    4.1542    2.6125    0.0000 C   0  0  0  0  0  0  0  0  0  0  0  0
  2  1  2  0  0  0  0
  3  2  1  0  0  0  0
  4  1  1  0  0  0  0
  5 13  1  0  0  0  0
  6  5  1  0  0  0  0
  7  8  1  0  0  0  0
  8  9  2  0  0  0  0
  9  1  1  0  0  0  0
 10  3  1  0  0  0  0
 11  7  1  0  0  0  0
 12 14  1  0  0  0  0
 13 15  1  0  0  0  0
 14  4  1  0  0  0  0
 15  4  1  0  0  0  0
 16  6  2  0  0  0  0
 17 10  2  0  0  0  0
 18  6  1  0  0  0  0
 19 11  2  0  0  0  0
 20 17  1  0  0  0  0
 21  8  1  0  0  0  0
 22 18  1  0  0  0  0
 23 22  1  0  0  0  0
  3  7  2  0  0  0  0
  5 12  1  0  0  0  0
 17 19  1  0  0  0  0
M  END
> <#>
1746

> <PLATE>
LAT022

> <ROW>
B

> <COL>
10

> <COORD>
B10

> <LATID>
LAT022B10

> <Supplier>
Chembridge

> <Suplier_CAT#>
5560960

> <Name>
Polarazine

> <Sec_Name>
171_E06

> <Concentration_(mM)>
2.5

> <IC50_(µM)>
33

> <Yeast_Active?>
+

> <Pubchem_CID>
872030

$$$$
