
  -ISIS-  08130814242D

 24 25  0  0  0  0  0  0  0  0999 V2000
   -1.9625   -0.3708    0.0000 C   0  0  0  0  0  0  0  0  0  0  0  0
   -2.6167    0.0000    0.0000 C   0  0  0  0  0  0  0  0  0  0  0  0
    0.0250    0.0417    0.0000 C   0  0  0  0  0  0  0  0  0  0  0  0
    1.3250    0.0500    0.0000 N   0  0  0  0  0  0  0  0  0  0  0  0
   -3.2750   -0.3792    0.0000 C   0  0  0  0  0  0  0  0  0  0  0  0
   -1.3000    0.0292    0.0000 O   0  0  0  0  0  0  0  0  0  0  0  0
    0.6792   -0.3333    0.0000 N   0  0  0  0  0  0  0  0  0  0  0  0
   -1.9542   -1.1125    0.0000 C   0  0  0  0  0  0  0  0  0  0  0  0
    0.0250    0.7667    0.0000 O   0  0  0  0  0  0  0  0  0  0  0  0
   -0.6208   -0.3500    0.0000 C   0  0  0  0  0  0  0  0  0  0  0  0
    1.9833   -0.3125    0.0000 C   0  0  0  0  0  0  0  0  0  0  0  0
   -2.6375    0.7625    0.0000 C   0  0  3  0  0  0  0  0  0  0  0  0
   -3.2750   -1.1500    0.0000 C   0  0  0  0  0  0  0  0  0  0  0  0
   -2.6000   -1.5000    0.0000 C   0  0  0  0  0  0  0  0  0  0  0  0
    2.6000    0.0667    0.0000 C   0  0  0  0  0  0  0  0  0  0  0  0
    3.9000    0.8292    0.0000 C   0  0  0  0  0  0  0  0  0  0  0  0
    2.6000    0.8000    0.0000 C   0  0  0  0  0  0  0  0  0  0  0  0
    3.2792   -0.3000    0.0000 C   0  0  0  0  0  0  0  0  0  0  0  0
    3.2375    1.1875    0.0000 C   0  0  0  0  0  0  0  0  0  0  0  0
    3.9000    0.0875    0.0000 C   0  0  0  0  0  0  0  0  0  0  0  0
    4.5625    1.2167    0.0000 O   0  0  0  0  0  0  0  0  0  0  0  0
   -3.3208    1.1208    0.0000 C   0  0  0  0  0  0  0  0  0  0  0  0
   -2.0125    1.1500    0.0000 C   0  0  0  0  0  0  0  0  0  0  0  0
   -2.6000   -2.2792    0.0000 C   0  0  0  0  0  0  0  0  0  0  0  0
  2  1  2  0  0  0  0
  3 10  1  0  0  0  0
  4  7  1  0  0  0  0
  5  2  1  0  0  0  0
  6  1  1  0  0  0  0
  7  3  1  0  0  0  0
  8  1  1  0  0  0  0
  9  3  2  0  0  0  0
 10  6  1  0  0  0  0
 11  4  2  0  0  0  0
 12  2  1  0  0  0  0
 13 14  1  0  0  0  0
 14  8  2  0  0  0  0
 15 11  1  0  0  0  0
 16 19  1  0  0  0  0
 17 15  1  0  0  0  0
 18 15  2  0  0  0  0
 19 17  2  0  0  0  0
 20 18  1  0  0  0  0
 21 16  1  0  0  0  0
 22 12  1  0  0  0  0
 23 12  1  0  0  0  0
 24 14  1  0  0  0  0
 13  5  2  0  0  0  0
 16 20  2  0  0  0  0
M  END
> <#>
1905

> <PLATE>
LAT024

> <ROW>
A

> <COL>
10

> <COORD>
A10

> <LATID>
LAT024A10

> <Supplier>
Chembridge

> <Suplier_CAT#>
8012170

> <Name>
Novel

> <Concentration_(mM)>
2.5

> <IC50_(µM)>
95

> <Yeast_Active?>
-

> <Pubchem_CID>
NULL

$$$$
