
  -ISIS-  08130814242D

 24 26  0  0  0  0  0  0  0  0999 V2000
    4.3750    1.6625    0.0000 C   0  0  0  0  0  0  0  0  0  0  0  0
    3.7292    2.0375    0.0000 N   0  0  0  0  0  0  0  0  0  0  0  0
    5.0250    2.0375    0.0000 C   0  0  0  0  0  0  0  0  0  0  0  0
    2.4292    2.7875    0.0000 N   0  0  0  0  0  0  0  0  0  0  0  0
    5.6750    1.6625    0.0000 C   0  0  0  0  0  0  0  0  0  0  0  0
    4.3750    0.9125    0.0000 O   0  0  0  0  0  0  0  0  0  0  0  0
    6.9750    1.6625    0.0000 O   0  0  0  0  0  0  0  0  0  0  0  0
    3.0792    1.6625    0.0000 C   0  0  0  0  0  0  0  0  0  0  0  0
    2.4292    2.0375    0.0000 C   0  0  0  0  0  0  0  0  0  0  0  0
    6.3250    2.0375    0.0000 C   0  0  0  0  0  0  0  0  0  0  0  0
    7.6250    2.0375    0.0000 C   0  0  0  0  0  0  0  0  0  0  0  0
    8.2750    1.6625    0.0000 C   0  0  0  0  0  0  0  0  0  0  0  0
    5.0250    2.7875    0.0000 C   0  0  0  0  0  0  0  0  0  0  0  0
    5.6750    3.1708    0.0000 C   0  0  0  0  0  0  0  0  0  0  0  0
    1.7792    3.1708    0.0000 C   0  0  0  0  0  0  0  0  0  0  0  0
    6.3250    2.7875    0.0000 C   0  0  0  0  0  0  0  0  0  0  0  0
    1.7792    1.6625    0.0000 C   0  0  0  0  0  0  0  0  0  0  0  0
    8.2750    0.9125    0.0000 C   0  0  0  0  0  0  0  0  0  0  0  0
    8.9250    2.0375    0.0000 C   0  0  0  0  0  0  0  0  0  0  0  0
    1.1292    2.7875    0.0000 C   0  0  0  0  0  0  0  0  0  0  0  0
    8.9250    0.5375    0.0000 C   0  0  0  0  0  0  0  0  0  0  0  0
    9.5750    1.6625    0.0000 C   0  0  0  0  0  0  0  0  0  0  0  0
    1.1292    2.0375    0.0000 C   0  0  0  0  0  0  0  0  0  0  0  0
    9.5750    0.9125    0.0000 C   0  0  0  0  0  0  0  0  0  0  0  0
  2  1  1  0  0  0  0
  3  1  1  0  0  0  0
  4  9  1  0  0  0  0
  5  3  1  0  0  0  0
  6  1  2  0  0  0  0
  7 10  1  0  0  0  0
  8  2  1  0  0  0  0
  9  8  1  0  0  0  0
 10  5  2  0  0  0  0
 11  7  1  0  0  0  0
 12 11  1  0  0  0  0
 13  3  2  0  0  0  0
 14 13  1  0  0  0  0
 15  4  2  0  0  0  0
 16 14  2  0  0  0  0
 17  9  2  0  0  0  0
 18 12  2  0  0  0  0
 19 12  1  0  0  0  0
 20 23  2  0  0  0  0
 21 18  1  0  0  0  0
 22 19  2  0  0  0  0
 23 17  1  0  0  0  0
 24 22  1  0  0  0  0
 16 10  1  0  0  0  0
 15 20  1  0  0  0  0
 24 21  2  0  0  0  0
M  END
> <#>
1570

> <PLATE>
LAT020

> <ROW>
B

> <COL>
8

> <COORD>
B08

> <LATID>
LAT020B08

> <Supplier>
Chembridge

> <Suplier_CAT#>
9039470

> <Name>
Novel

> <Concentration_(mM)>
2.5

> <IC50_(µM)>
71

> <Yeast_Active?>
-

> <Pubchem_CID>
6463554

$$$$
