
  -ISIS-  08130814242D

 17 18  0  0  0  0  0  0  0  0999 V2000
    2.7417    0.0833    0.0000 C   0  0  0  0  0  0  0  0  0  0  0  0
    3.4542   -0.3292    0.0000 C   0  0  0  0  0  0  0  0  0  0  0  0
    4.1667    0.0833    0.0000 C   0  0  0  0  0  0  0  0  0  0  0  0
    5.6000    0.0833    0.0000 C   0  0  0  0  0  0  0  0  0  0  0  0
    4.8875   -0.3292    0.0000 C   0  0  0  0  0  0  0  0  0  0  0  0
    6.3500   -0.2500    0.0000 S   0  0  0  0  0  0  0  0  0  0  0  0
    2.7417    0.9083    0.0000 C   0  0  0  0  0  0  0  0  0  0  0  0
    2.0250   -0.3292    0.0000 C   0  0  0  0  0  0  0  0  0  0  0  0
    6.9000    0.3625    0.0000 C   0  0  0  0  0  0  0  0  0  0  0  0
    5.6792    0.9083    0.0000 C   0  0  0  0  0  0  0  0  0  0  0  0
    6.4875    1.0750    0.0000 C   0  0  0  0  0  0  0  0  0  0  0  0
    3.4542   -1.1542    0.0000 O   0  0  0  0  0  0  0  0  0  0  0  0
    2.0250    1.3208    0.0000 C   0  0  0  0  0  0  0  0  0  0  0  0
    1.3125    0.0833    0.0000 C   0  0  0  0  0  0  0  0  0  0  0  0
    1.3125    0.9083    0.0000 C   0  0  0  0  0  0  0  0  0  0  0  0
    0.5917   -0.3292    0.0000 Cl  0  0  0  0  0  0  0  0  0  0  0  0
    3.4542    1.3250    0.0000 O   0  0  0  0  0  0  0  0  0  0  0  0
  2  1  1  0  0  0  0
  3  2  1  0  0  0  0
  4  5  1  0  0  0  0
  5  3  2  0  0  0  0
  6  4  1  0  0  0  0
  7  1  1  0  0  0  0
  8  1  2  0  0  0  0
  9  6  1  0  0  0  0
 10  4  2  0  0  0  0
 11 10  1  0  0  0  0
 12  2  2  0  0  0  0
 13  7  2  0  0  0  0
 14  8  1  0  0  0  0
 15 14  2  0  0  0  0
 16 14  1  0  0  0  0
 17  7  1  0  0  0  0
 15 13  1  0  0  0  0
 11  9  2  0  0  0  0
M  END
> <#>
1365

> <PLATE>
LAT018

> <ROW>
E

> <COL>
2

> <COORD>
E02

> <LATID>
LAT018E02

> <Supplier>
Chembridge

> <Suplier_CAT#>
7112516

> <Name>
Novel

> <Concentration_(mM)>
2.5

> <IC50_(µM)>
inactive

> <Yeast_Active?>
+

> <Pubchem_CID>
251569

$$$$
