
  -ISIS-  08130814242D

 25 25  0  0  0  0  0  0  0  0999 V2000
    2.8625   -3.0292    0.0000 C   0  0  0  0  0  0  0  0  0  0  0  0
    3.6875   -3.0292    0.0000 C   0  0  0  0  0  0  0  0  0  0  0  0
    2.2750   -2.4417    0.0000 O   0  0  0  0  0  0  0  0  0  0  0  0
    4.2667   -3.6125    0.0000 O   0  0  0  0  0  0  0  0  0  0  0  0
    4.2667   -2.4417    0.0000 O   0  0  0  0  0  0  0  0  0  0  0  0
    2.2750   -3.6125    0.0000 O   0  0  0  0  0  0  0  0  0  0  0  0
    6.7583   -1.0917    0.0000 C   0  0  0  0  0  0  0  0  0  0  0  0
    1.7792    0.1375    0.0000 N   0  0  3  0  0  0  0  0  0  0  0  0
    4.6292    0.1458    0.0000 C   0  0  0  0  0  0  0  0  0  0  0  0
    7.4750   -0.6833    0.0000 C   0  0  0  0  0  0  0  0  0  0  0  0
    6.0500   -0.6750    0.0000 C   0  0  0  0  0  0  0  0  0  0  0  0
    6.0542    0.1500    0.0000 C   0  0  0  0  0  0  0  0  0  0  0  0
    4.6250   -0.6792    0.0000 O   0  0  0  0  0  0  0  0  0  0  0  0
    5.3417    0.5625    0.0000 C   0  0  0  0  0  0  0  0  0  0  0  0
    7.4750    0.1458    0.0000 C   0  0  0  0  0  0  0  0  0  0  0  0
    6.7542   -1.9167    0.0000 Cl  0  0  0  0  0  0  0  0  0  0  0  0
    6.7667    0.5542    0.0000 C   0  0  0  0  0  0  0  0  0  0  0  0
    8.1875   -1.0917    0.0000 Cl  0  0  0  0  0  0  0  0  0  0  0  0
    3.9167    0.5583    0.0000 O   0  0  0  0  0  0  0  0  0  0  0  0
    2.4917    0.5583    0.0000 C   0  0  0  0  0  0  0  0  0  0  0  0
    3.2042    0.1458    0.0000 C   0  0  0  0  0  0  0  0  0  0  0  0
    1.9083   -0.6750    0.0000 C   0  0  0  0  0  0  0  0  0  0  0  0
    0.9625    0.2667    0.0000 C   0  0  0  0  0  0  0  0  0  0  0  0
    1.1708   -1.0500    0.0000 C   0  0  0  0  0  0  0  0  0  0  0  0
    0.5875   -0.4667    0.0000 C   0  0  0  0  0  0  0  0  0  0  0  0
  5  2  1  0  0  0  0
  6  1  1  0  0  0  0
  2  1  1  0  0  0  0
  3  1  2  0  0  0  0
  4  2  2  0  0  0  0
  8 20  1  0  0  0  0
  9 14  1  0  0  0  0
 10  7  2  0  0  0  0
 11  7  1  0  0  0  0
 12 11  2  0  0  0  0
 13  9  2  0  0  0  0
 14 12  1  0  0  0  0
 15 10  1  0  0  0  0
 16  7  1  0  0  0  0
 17 12  1  0  0  0  0
 18 10  1  0  0  0  0
 19  9  1  0  0  0  0
 20 21  1  0  0  0  0
 21 19  1  0  0  0  0
 22  8  1  0  0  0  0
 23  8  1  0  0  0  0
 24 22  1  0  0  0  0
 25 23  1  0  0  0  0
 15 17  2  0  0  0  0
 25 24  1  0  0  0  0
M  END
> <#>
195

> <PLATE>
LAT003

> <ROW>
C

> <COL>
6

> <COORD>
C06

> <LATID>
LAT003C06

> <Supplier>
Sigma

> <Suplier_CAT#>
A 3595

> <Name>
Ac 915 Oxalate

> <Concentration_(mM)>
2.5

> <IC50_(µM)>
16

> <Yeast_Active?>
-

> <Pubchem_CID>
5236783

> <Description>
Opioid receptor ligand

$$$$
