
  -ISIS-  08130814242D

 29 32  0  0  0  0  0  0  0  0999 V2000
    0.2875   -1.0167    0.0000 C   0  0  0  0  0  0  0  0  0  0  0  0
   -0.4333   -0.9167    0.0000 C   0  0  0  0  0  0  0  0  0  0  0  0
    0.4042   -1.7167    0.0000 N   0  0  3  0  0  0  0  0  0  0  0  0
   -0.2500   -2.0375    0.0000 N   0  0  0  0  0  0  0  0  0  0  0  0
    0.7667   -0.5167    0.0000 N   0  0  0  0  0  0  0  0  0  0  0  0
   -0.7708   -0.2792    0.0000 C   0  0  0  0  0  0  0  0  0  0  0  0
   -0.7333   -1.5167    0.0000 C   0  0  0  0  0  0  0  0  0  0  0  0
    1.4500   -0.6792    0.0000 C   0  0  0  0  0  0  0  0  0  0  0  0
   -1.4958   -0.2792    0.0000 N   0  0  0  0  0  0  0  0  0  0  0  0
    1.0500   -1.9542    0.0000 C   0  0  0  0  0  0  0  0  0  0  0  0
   -0.4333    0.3458    0.0000 O   0  0  0  0  0  0  0  0  0  0  0  0
    1.6500   -1.3375    0.0000 O   0  0  0  0  0  0  0  0  0  0  0  0
    1.9292   -0.1792    0.0000 C   0  0  0  0  0  0  0  0  0  0  0  0
   -1.8333   -0.8792    0.0000 C   0  0  0  0  0  0  0  0  0  0  0  0
    1.5875   -1.5000    0.0000 C   0  0  0  0  0  0  0  0  0  0  0  0
    1.1667   -2.6375    0.0000 C   0  0  0  0  0  0  0  0  0  0  0  0
    1.7292    0.5000    0.0000 C   0  0  0  0  0  0  0  0  0  0  0  0
    2.6042   -0.3375    0.0000 C   0  0  0  0  0  0  0  0  0  0  0  0
   -2.5208   -0.8792    0.0000 C   0  0  0  0  0  0  0  0  0  0  0  0
   -1.5000   -1.4792    0.0000 C   0  0  0  0  0  0  0  0  0  0  0  0
    2.2500   -1.7375    0.0000 C   0  0  0  0  0  0  0  0  0  0  0  0
    1.8292   -2.9000    0.0000 C   0  0  0  0  0  0  0  0  0  0  0  0
    3.0875    0.1833    0.0000 C   0  0  0  0  0  0  0  0  0  0  0  0
    2.2042    1.0000    0.0000 C   0  0  0  0  0  0  0  0  0  0  0  0
   -1.8333   -2.0667    0.0000 C   0  0  0  0  0  0  0  0  0  0  0  0
   -2.8625   -1.4792    0.0000 C   0  0  0  0  0  0  0  0  0  0  0  0
   -2.5208   -2.0792    0.0000 C   0  0  0  0  0  0  0  0  0  0  0  0
    2.8875    0.8458    0.0000 C   0  0  0  0  0  0  0  0  0  0  0  0
    2.3667   -2.4375    0.0000 C   0  0  0  0  0  0  0  0  0  0  0  0
  2  1  2  0  0  0  0
  3  1  1  0  0  0  0
  4  3  1  0  0  0  0
  5  1  1  0  0  0  0
  6  2  1  0  0  0  0
  7  2  1  0  0  0  0
  8  5  1  0  0  0  0
  9  6  1  0  0  0  0
 10  3  1  0  0  0  0
 11  6  2  0  0  0  0
 12  8  2  0  0  0  0
 13  8  1  0  0  0  0
 14  9  1  0  0  0  0
 15 10  1  0  0  0  0
 16 10  2  0  0  0  0
 17 13  1  0  0  0  0
 18 13  2  0  0  0  0
 19 14  2  0  0  0  0
 20 14  1  0  0  0  0
 21 15  2  0  0  0  0
 22 16  1  0  0  0  0
 23 18  1  0  0  0  0
 24 17  2  0  0  0  0
 25 20  2  0  0  0  0
 26 19  1  0  0  0  0
 27 25  1  0  0  0  0
 28 23  2  0  0  0  0
 29 22  2  0  0  0  0
  4  7  2  0  0  0  0
 21 29  1  0  0  0  0
 24 28  1  0  0  0  0
 27 26  2  0  0  0  0
M  END
> <#>
1799

> <PLATE>
LAT023

> <ROW>
G

> <COL>
6

> <COORD>
G06

> <LATID>
LAT023G06

> <Supplier>
Chembridge

> <Suplier_CAT#>
5583608

> <Name>
Azoxamide

> <Sec_Name>
182_D04

> <Concentration_(mM)>
2.5

> <IC50_(µM)>
0.8

> <Yeast_Active?>
-

> <Pubchem_CID>
1350707

> <Comment>
SS13

$$$$
