
  -ISIS-  08130814242D

 18 19  0  0  0  0  0  0  0  0999 V2000
    2.9417   -0.9000    0.0000 C   0  0  0  0  0  0  0  0  0  0  0  0
    2.1167   -0.9000    0.0000 N   0  0  3  0  0  0  0  0  0  0  0  0
    3.2000   -1.6792    0.0000 N   0  0  0  0  0  0  0  0  0  0  0  0
    2.5292   -2.1667    0.0000 N   0  0  0  0  0  0  0  0  0  0  0  0
    1.8625   -1.6792    0.0000 N   0  0  0  0  0  0  0  0  0  0  0  0
    3.4292   -0.2292    0.0000 S   0  0  0  0  0  0  0  0  0  0  0  0
    5.5542    0.2625    0.0000 C   0  0  0  0  0  0  0  0  0  0  0  0
    5.8875   -0.4917    0.0000 C   0  0  0  0  0  0  0  0  0  0  0  0
    6.7042   -0.5792    0.0000 C   0  0  0  0  0  0  0  0  0  0  0  0
    4.7292    0.3500    0.0000 C   0  0  0  0  0  0  0  0  0  0  0  0
    7.1917    0.0875    0.0000 C   0  0  0  0  0  0  0  0  0  0  0  0
    4.2500   -0.3167    0.0000 C   0  0  0  0  0  0  0  0  0  0  0  0
    6.0292    0.9333    0.0000 C   0  0  0  0  0  0  0  0  0  0  0  0
    4.4000    1.1083    0.0000 O   0  0  0  0  0  0  0  0  0  0  0  0
    6.8500    0.8458    0.0000 C   0  0  0  0  0  0  0  0  0  0  0  0
    1.6292   -0.2292    0.0000 C   0  0  0  0  0  0  0  0  0  0  0  0
    7.0417   -1.3292    0.0000 O   0  0  0  0  0  0  0  0  0  0  0  0
    8.0125    0.0083    0.0000 O   0  0  0  0  0  0  0  0  0  0  0  0
  2  1  1  0  0  0  0
  3  1  2  0  0  0  0
  4  3  1  0  0  0  0
  5  2  1  0  0  0  0
  6  1  1  0  0  0  0
  7 10  1  0  0  0  0
  8  7  2  0  0  0  0
  9  8  1  0  0  0  0
 10 12  1  0  0  0  0
 11 15  1  0  0  0  0
 12  6  1  0  0  0  0
 13  7  1  0  0  0  0
 14 10  2  0  0  0  0
 15 13  2  0  0  0  0
 16  2  1  0  0  0  0
 17  9  1  0  0  0  0
 18 11  1  0  0  0  0
  4  5  2  0  0  0  0
 11  9  2  0  0  0  0
M  END
> <#>
1377

> <PLATE>
LAT018

> <ROW>
A

> <COL>
4

> <COORD>
A04

> <LATID>
LAT018A04

> <Supplier>
Chembridge

> <Suplier_CAT#>
7591231

> <Name>
Novel

> <Concentration_(mM)>
2.5

> <IC50_(µM)>
inactive

> <Yeast_Active?>
-

> <Pubchem_CID>
713462

$$$$
