
  -ISIS-  08130814242D

 21 22  0  0  0  0  0  0  0  0999 V2000
   -2.9000    0.1333    0.0000 C   0  0  0  0  0  0  0  0  0  0  0  0
   -2.9000   -0.7875    0.0000 C   0  0  0  0  0  0  0  0  0  0  0  0
   -3.7000    0.5958    0.0000 C   0  0  0  0  0  0  0  0  0  0  0  0
   -3.7000   -1.2500    0.0000 N   0  0  0  0  0  0  0  0  0  0  0  0
   -4.5000    0.1333    0.0000 C   0  0  0  0  0  0  0  0  0  0  0  0
   -4.5000   -0.7875    0.0000 C   0  0  0  0  0  0  0  0  0  0  0  0
   -2.0625    0.6125    0.0000 C   0  0  0  0  0  0  0  0  0  0  0  0
   -1.2625    0.1500    0.0000 C   0  0  0  0  0  0  0  0  0  0  0  0
   -2.1000   -1.2500    0.0000 O   0  0  0  0  0  0  0  0  0  0  0  0
   -0.4625    0.6125    0.0000 C   0  0  0  0  0  0  0  0  0  0  0  0
   -2.0625    1.5500    0.0000 O   0  0  0  0  0  0  0  0  0  0  0  0
    0.3375    0.1500    0.0000 C   0  0  0  0  0  0  0  0  0  0  0  0
   -3.7000    1.5125    0.0000 C   0  0  0  0  0  0  0  0  0  0  0  0
    1.9792   -0.7500    0.0000 C   0  0  0  0  0  0  0  0  0  0  0  0
    0.3542   -0.7667    0.0000 C   0  0  0  0  0  0  0  0  0  0  0  0
    1.1375    0.6333    0.0000 C   0  0  0  0  0  0  0  0  0  0  0  0
    1.9375    0.1708    0.0000 C   0  0  0  0  0  0  0  0  0  0  0  0
    1.1542   -1.2292    0.0000 C   0  0  0  0  0  0  0  0  0  0  0  0
   -5.3000   -1.2500    0.0000 C   0  0  0  0  0  0  0  0  0  0  0  0
    2.8000   -1.1875    0.0000 C   0  0  0  0  0  0  0  0  0  0  0  0
    3.6000   -0.7042    0.0000 C   0  0  0  0  0  0  0  0  0  0  0  0
  2  1  1  0  0  0  0
  3  1  2  0  0  0  0
  4  2  1  0  0  0  0
  5  3  1  0  0  0  0
  6  5  2  0  0  0  0
  7  1  1  0  0  0  0
  8  7  1  0  0  0  0
  9  2  2  0  0  0  0
 10  8  2  0  0  0  0
 11  7  2  0  0  0  0
 12 10  1  0  0  0  0
 13  3  1  0  0  0  0
 14 17  1  0  0  0  0
 15 12  2  0  0  0  0
 16 12  1  0  0  0  0
 17 16  2  0  0  0  0
 18 15  1  0  0  0  0
 19  6  1  0  0  0  0
 20 14  1  0  0  0  0
 21 20  1  0  0  0  0
  4  6  1  0  0  0  0
 14 18  2  0  0  0  0
M  END
> <#>
1755

> <PLATE>
LAT022

> <ROW>
C

> <COL>
11

> <COORD>
C11

> <LATID>
LAT022C11

> <Supplier>
Chembridge

> <Suplier_CAT#>
5784553

> <Name>
Novel

> <Sec_Name>
248_D03

> <Concentration_(mM)>
2.5

> <IC50_(µM)>
87

> <Yeast_Active?>
-

> <Pubchem_CID>
5726165

$$$$
