
  -ISIS-  08130814242D

 24 26  0  0  0  0  0  0  0  0999 V2000
    3.2792   -0.8167    0.0000 C   0  0  0  0  0  0  0  0  0  0  0  0
    4.5792   -0.8167    0.0000 N   0  0  0  0  0  0  0  0  0  0  0  0
    5.8792   -2.3167    0.0000 C   0  0  0  0  0  0  0  0  0  0  0  0
    3.9292   -1.1875    0.0000 N   0  0  0  0  0  0  0  0  0  0  0  0
    3.2792   -0.0667    0.0000 O   0  0  0  0  0  0  0  0  0  0  0  0
    5.2292   -1.9375    0.0000 C   0  0  0  0  0  0  0  0  0  0  0  0
    0.6792   -0.8042    0.0000 C   0  0  0  0  0  0  0  0  0  0  0  0
    5.2292   -1.1875    0.0000 C   0  0  0  0  0  0  0  0  0  0  0  0
    2.6292   -1.1875    0.0000 C   0  0  0  0  0  0  0  0  0  0  0  0
    1.9792   -0.8167    0.0000 O   0  0  0  0  0  0  0  0  0  0  0  0
    5.8792   -3.0667    0.0000 C   0  0  0  0  0  0  0  0  0  0  0  0
    1.3292   -1.1875    0.0000 C   0  0  0  0  0  0  0  0  0  0  0  0
    0.0292   -1.1875    0.0000 C   0  0  0  0  0  0  0  0  0  0  0  0
   -0.6125   -0.8167    0.0000 Cl  0  0  0  0  0  0  0  0  0  0  0  0
    4.5792   -3.0667    0.0000 C   0  0  0  0  0  0  0  0  0  0  0  0
    0.6792   -2.3167    0.0000 C   0  0  0  0  0  0  0  0  0  0  0  0
    4.5792   -2.3167    0.0000 C   0  0  0  0  0  0  0  0  0  0  0  0
    6.5292   -1.9500    0.0000 C   0  0  0  0  0  0  0  0  0  0  0  0
    5.2292   -3.4375    0.0000 C   0  0  0  0  0  0  0  0  0  0  0  0
    1.3292   -1.9500    0.0000 C   0  0  0  0  0  0  0  0  0  0  0  0
    0.0292   -1.9500    0.0000 C   0  0  0  0  0  0  0  0  0  0  0  0
    6.5292   -3.4500    0.0000 C   0  0  0  0  0  0  0  0  0  0  0  0
    7.1792   -2.3167    0.0000 C   0  0  0  0  0  0  0  0  0  0  0  0
    7.1792   -3.0667    0.0000 C   0  0  0  0  0  0  0  0  0  0  0  0
  2  4  1  0  0  0  0
  3  6  2  0  0  0  0
  4  1  1  0  0  0  0
  5  1  2  0  0  0  0
  6  8  1  0  0  0  0
  7 12  1  0  0  0  0
  8  2  2  0  0  0  0
  9  1  1  0  0  0  0
 10  9  1  0  0  0  0
 11  3  1  0  0  0  0
 12 10  1  0  0  0  0
 13  7  2  0  0  0  0
 14 13  1  0  0  0  0
 15 17  2  0  0  0  0
 16 20  1  0  0  0  0
 17  6  1  0  0  0  0
 18  3  1  0  0  0  0
 19 15  1  0  0  0  0
 20 12  2  0  0  0  0
 21 16  2  0  0  0  0
 22 11  1  0  0  0  0
 23 18  2  0  0  0  0
 24 23  1  0  0  0  0
 21 13  1  0  0  0  0
 11 19  2  0  0  0  0
 24 22  2  0  0  0  0
M  END
> <#>
799

> <PLATE>
LAT010

> <ROW>
G

> <COL>
11

> <COORD>
G11

> <LATID>
LAT010G11

> <Supplier>
Chembridge

> <Suplier_CAT#>
5575007

> <Name>
Novel

> <Sec_Name>
177_E09

> <Concentration_(mM)>
2.5

> <IC50_(µM)>
100

> <Yeast_Active?>
-

> <Pubchem_CID>
759331

$$$$
