
  -ISIS-  08130814242D

 40 43  0  0  0  0  0  0  0  0999 V2000
    0.6813   -3.0320    0.0000 C   0  0  0  0  0  0  0  0  0  0  0  0
    0.6910   -3.8593    0.0000 C   0  0  0  0  0  0  0  0  0  0  0  0
    1.4111   -4.2628    0.0000 N   0  0  0  0  0  0  0  0  0  0  0  0
    1.3876   -2.6100    0.0000 C   0  0  0  0  0  0  0  0  0  0  0  0
    2.1083   -3.0097    0.0000 C   0  0  0  0  0  0  0  0  0  0  0  0
    2.1195   -3.8407    0.0000 C   0  0  0  0  0  0  0  0  0  0  0  0
    2.9132   -4.0869    0.0000 N   0  0  3  0  0  0  0  0  0  0  0  0
    3.3927   -3.4080    0.0000 C   0  0  0  0  0  0  0  0  0  0  0  0
    2.8952   -2.7424    0.0000 N   0  0  0  0  0  0  0  0  0  0  0  0
    4.2608   -4.6997    0.0000 C   0  0  0  0  0  0  0  0  0  0  0  0
    4.6859   -5.4095    0.0000 C   0  0  0  0  0  0  0  0  0  0  0  0
    5.5113   -5.3954    0.0000 C   0  0  0  0  0  0  0  0  0  0  0  0
    5.9126   -4.6721    0.0000 C   0  0  0  0  0  0  0  0  0  0  0  0
    5.4824   -3.9616    0.0000 C   0  0  0  0  0  0  0  0  0  0  0  0
    4.6585   -3.9793    0.0000 C   0  0  0  0  0  0  0  0  0  0  0  0
    3.4347   -4.7200    0.0000 C   0  0  0  0  0  0  0  0  0  0  0  0
    6.7374   -4.6565    0.0000 C   0  0  0  0  0  0  0  0  0  0  0  0
    7.2356   -5.3123    0.0000 C   0  0  0  0  0  0  0  0  0  0  0  0
    8.0153   -5.0425    0.0000 C   0  0  0  0  0  0  0  0  0  0  0  0
    7.9997   -4.2177    0.0000 S   0  0  0  0  0  0  0  0  0  0  0  0
    7.2104   -3.9776    0.0000 C   0  0  0  0  0  0  0  0  0  0  0  0
    6.9403   -3.1981    0.0000 S   0  0  3  0  0  0  0  0  0  0  0  0
    8.6918   -5.5147    0.0000 C   0  0  0  0  0  0  0  0  0  0  0  0
   -0.0184   -4.2806    0.0000 C   0  0  0  0  0  0  0  0  0  0  0  0
    1.3744   -1.7851    0.0000 C   0  0  0  0  0  0  0  0  0  0  0  0
    4.2176   -3.3969    0.0000 C   0  0  0  0  0  0  0  0  0  0  0  0
    4.6205   -2.6770    0.0000 C   0  0  0  0  0  0  0  0  0  0  0  0
    7.7214   -2.9326    0.0000 N   0  0  0  0  0  0  0  0  0  0  0  0
    6.6659   -2.4227    0.0000 O   0  0  0  0  0  0  0  0  0  0  0  0
    6.1581   -3.4637    0.0000 O   0  0  0  0  0  0  0  0  0  0  0  0
    7.8820   -2.1234    0.0000 C   0  0  0  0  0  0  0  0  0  0  0  0
    8.6633   -1.8554    0.0000 O   0  0  0  0  0  0  0  0  0  0  0  0
    7.2617   -1.5772    0.0000 O   0  0  0  0  0  0  0  0  0  0  0  0
    9.3750   -2.2625    0.0000 C   0  0  0  0  0  0  0  0  0  0  0  0
   10.0875   -1.8500    0.0000 C   0  0  0  0  0  0  0  0  0  0  0  0
   10.8000   -2.2583    0.0000 C   0  0  0  0  0  0  0  0  0  0  0  0
   11.5125   -1.8458    0.0000 C   0  0  0  0  0  0  0  0  0  0  0  0
    9.4390   -5.1649    0.0000 C   0  0  3  0  0  0  0  0  0  0  0  0
   10.1155   -5.6371    0.0000 C   0  0  0  0  0  0  0  0  0  0  0  0
    9.5096   -4.3430    0.0000 C   0  0  0  0  0  0  0  0  0  0  0  0
  9  5  1  0  0  0  0
  4  1  1  0  0  0  0
 17 18  1  0  0  0  0
 19 20  1  0  0  0  0
 21 17  2  0  0  0  0
  5  6  1  0  0  0  0
 21 22  1  0  0  0  0
 10 11  2  0  0  0  0
 19 23  1  0  0  0  0
 16  7  1  0  0  0  0
  2 24  1  0  0  0  0
 11 12  1  0  0  0  0
  4 25  1  0  0  0  0
  2  3  1  0  0  0  0
  8 26  1  0  0  0  0
 12 13  2  0  0  0  0
 26 27  1  0  0  0  0
  3  6  2  0  0  0  0
 13 14  1  0  0  0  0
  1  2  2  0  0  0  0
 22 28  1  0  0  0  0
 22 29  2  0  0  0  0
 22 30  2  0  0  0  0
 14 15  2  0  0  0  0
 28 31  1  0  0  0  0
 15 10  1  0  0  0  0
  5  4  2  0  0  0  0
 31 32  1  0  0  0  0
 31 33  2  0  0  0  0
 10 16  1  0  0  0  0
 32 34  1  0  0  0  0
  6  7  1  0  0  0  0
 34 35  1  0  0  0  0
 13 17  1  0  0  0  0
 35 36  1  0  0  0  0
 20 21  1  0  0  0  0
 36 37  1  0  0  0  0
  7  8  1  0  0  0  0
 23 38  1  0  0  0  0
 18 19  2  0  0  0  0
 38 39  1  0  0  0  0
  8  9  2  0  0  0  0
 38 40  1  0  0  0  0
M  END
> <#>
241

> <PLATE>
LAT004

> <ROW>
A

> <COL>
2

> <COORD>
A02

> <LATID>
LAT004A02

> <Supplier>
Sigma

> <Suplier_CAT#>
L 1415

> <Name>
L-162,313

> <Concentration_(mM)>
2.5

> <IC50_(µM)>
100

> <Yeast_Active?>
-

> <Pubchem_CID>
6603900

> <Description>
Non-peptide AT1 angiotensin II receptor agonist

$$$$
