
  -ISIS-  08130814242D

 19 21  0  0  0  0  0  0  0  0999 V2000
    3.7042   -3.0167    0.0000 N   0  0  0  0  0  0  0  0  0  0  0  0
    4.1917   -3.6792    0.0000 C   0  0  0  0  0  0  0  0  0  0  0  0
    2.9250   -4.1042    0.0000 C   0  0  0  0  0  0  0  0  0  0  0  0
    3.7042   -4.3542    0.0000 C   0  0  0  0  0  0  0  0  0  0  0  0
    2.9167   -3.2792    0.0000 C   0  0  0  0  0  0  0  0  0  0  0  0
    5.3500   -4.5167    0.0000 C   0  0  0  0  0  0  0  0  0  0  0  0
    5.0125   -3.7667    0.0000 C   0  0  0  0  0  0  0  0  0  0  0  0
    6.5125   -5.3500    0.0000 C   0  0  0  0  0  0  0  0  0  0  0  0
    4.0417   -5.1042    0.0000 C   0  0  0  0  0  0  0  0  0  0  0  0
    6.1667   -4.5917    0.0000 C   0  0  3  0  0  0  0  0  0  0  0  0
    2.2042   -4.5167    0.0000 C   0  0  0  0  0  0  0  0  0  0  0  0
    4.8667   -5.1875    0.0000 C   0  0  0  0  0  0  0  0  0  0  0  0
    6.0292   -6.0167    0.0000 O   0  0  0  0  0  0  0  0  0  0  0  0
    2.2042   -2.8667    0.0000 C   0  0  0  0  0  0  0  0  0  0  0  0
    1.4917   -4.1042    0.0000 C   0  0  0  0  0  0  0  0  0  0  0  0
    7.3292   -5.4292    0.0000 O   0  0  0  0  0  0  0  0  0  0  0  0
    1.4917   -3.2792    0.0000 C   0  0  0  0  0  0  0  0  0  0  0  0
    0.7750   -4.5167    0.0000 Cl  0  0  0  0  0  0  0  0  0  0  0  0
    6.6542   -3.9250    0.0000 C   0  0  0  0  0  0  0  0  0  0  0  0
  2  1  1  0  0  0  0
  3  5  1  0  0  0  0
  4  2  2  0  0  0  0
  5  1  1  0  0  0  0
  6  7  2  0  0  0  0
  7  2  1  0  0  0  0
  8 10  1  0  0  0  0
  9  4  1  0  0  0  0
 10  6  1  0  0  0  0
 11  3  2  0  0  0  0
 12  6  1  0  0  0  0
 13  8  2  0  0  0  0
 14  5  2  0  0  0  0
 15 17  2  0  0  0  0
 16  8  1  0  0  0  0
 17 14  1  0  0  0  0
 18 15  1  0  0  0  0
 19 10  1  0  0  0  0
  3  4  1  0  0  0  0
 15 11  1  0  0  0  0
  9 12  2  0  0  0  0
M  END
> <#>
167

> <PLATE>
LAT003

> <ROW>
G

> <COL>
2

> <COORD>
G02

> <LATID>
LAT003G02

> <Supplier>
Microsource

> <Suplier_CAT#>
01502006

> <Name>
Carprofen

> <Concentration_(mM)>
2.5

> <IC50_(µM)>
16

> <Yeast_Active?>
-

> <Pubchem_CID>
2581

> <Description>
Antiinflammatory, Analgesic

$$$$
