
  -ISIS-  08130814242D

 22 24  0  0  0  0  0  0  0  0999 V2000
   -1.6000   -0.3792    0.0000 C   0  0  0  0  0  0  0  0  0  0  0  0
   -0.7625    0.5333    0.0000 C   0  0  0  0  0  0  0  0  0  0  0  0
   -0.9000   -0.7000    0.0000 O   0  0  0  0  0  0  0  0  0  0  0  0
   -0.3625   -0.1167    0.0000 C   0  0  0  0  0  0  0  0  0  0  0  0
   -1.5208    0.3958    0.0000 C   0  0  0  0  0  0  0  0  0  0  0  0
   -2.2458   -0.7792    0.0000 C   0  0  0  0  0  0  0  0  0  0  0  0
   -0.4500    1.2208    0.0000 C   0  0  0  0  0  0  0  0  0  0  0  0
    0.3000    1.3000    0.0000 C   0  0  0  0  0  0  0  0  0  0  0  0
    0.8500    0.7125    0.0000 S   0  0  0  0  0  0  0  0  0  0  0  0
   -2.8833   -0.4000    0.0000 C   0  0  0  0  0  0  0  0  0  0  0  0
   -2.2458   -1.5500    0.0000 C   0  0  0  0  0  0  0  0  0  0  0  0
    0.3667   -0.1792    0.0000 O   0  0  0  0  0  0  0  0  0  0  0  0
    1.5000    1.0833    0.0000 C   0  0  0  0  0  0  0  0  0  0  0  0
    0.6500    1.9958    0.0000 C   0  0  0  0  0  0  0  0  0  0  0  0
    1.4000    1.8708    0.0000 C   0  0  0  0  0  0  0  0  0  0  0  0
   -3.5208   -0.7792    0.0000 C   0  0  0  0  0  0  0  0  0  0  0  0
   -2.8833   -1.9042    0.0000 C   0  0  0  0  0  0  0  0  0  0  0  0
   -3.5208   -1.5500    0.0000 C   0  0  0  0  0  0  0  0  0  0  0  0
   -2.8833    0.3458    0.0000 O   0  0  0  0  0  0  0  0  0  0  0  0
   -2.8833   -2.6542    0.0000 O   0  0  0  0  0  0  0  0  0  0  0  0
   -2.2333    0.7208    0.0000 C   0  0  0  0  0  0  0  0  0  0  0  0
   -3.5208   -3.0292    0.0000 C   0  0  0  0  0  0  0  0  0  0  0  0
  2  5  1  0  0  0  0
  3  1  1  0  0  0  0
  4  3  1  0  0  0  0
  5  1  2  0  0  0  0
  6  1  1  0  0  0  0
  7  2  2  0  0  0  0
  8  7  1  0  0  0  0
  9  8  1  0  0  0  0
 10  6  1  0  0  0  0
 11  6  2  0  0  0  0
 12  4  2  0  0  0  0
 13  9  1  0  0  0  0
 14  8  2  0  0  0  0
 15 14  1  0  0  0  0
 16 10  2  0  0  0  0
 17 11  1  0  0  0  0
 18 17  2  0  0  0  0
 19 10  1  0  0  0  0
 20 17  1  0  0  0  0
 21 19  1  0  0  0  0
 22 20  1  0  0  0  0
  4  2  1  0  0  0  0
 18 16  1  0  0  0  0
 15 13  2  0  0  0  0
M  END
> <#>
2024

> <PLATE>
LAT026

> <ROW>
H

> <COL>
4

> <COORD>
H04

> <LATID>
LAT026H04

> <Supplier>
Chembridge

> <Suplier_CAT#>
5672566

> <Sec_Name>
213_D06

> <Concentration_(mM)>
2.5

> <IC50_(µM)>
inactive

> <Yeast_Active?>
-

> <Pubchem_CID>
NULL

$$$$
