
  -ISIS-  08130814242D

 23 25  0  0  0  0  0  0  0  0999 V2000
    5.2167   -3.0667    0.0000 C   0  0  0  0  0  0  0  0  0  0  0  0
    7.2667   -0.2042    0.0000 C   0  0  0  0  0  0  0  0  0  0  0  0
    7.3000   -5.9167    0.0000 S   0  0  0  0  0  0  0  0  0  0  0  0
   10.6417   -1.3042    0.0000 C   0  0  0  0  0  0  0  0  0  0  0  0
    1.6625   -3.1042    0.0000 N   0  0  0  0  0  0  0  0  0  0  0  0
   10.6792   -4.7750    0.0000 C   0  0  0  0  0  0  0  0  0  0  0  0
   -0.1125   -0.0792    0.0000 C   0  0  0  0  0  0  0  0  0  0  0  0
    7.5542    3.3208    0.0000 C   0  0  0  0  0  0  0  0  0  0  0  0
    1.6625    2.9583    0.0000 S   0  0  0  0  0  0  0  0  0  0  0  0
   -3.6333   -0.0792    0.0000 N   0  0  0  0  0  0  0  0  0  0  0  0
  -10.7542    5.9167    0.0000 N   0  0  0  0  0  0  0  0  0  0  0  0
    4.6667    5.3375    0.0000 O   0  0  0  0  0  0  0  0  0  0  0  0
   -8.9042    2.9083    0.0000 C   0  0  0  0  0  0  0  0  0  0  0  0
   10.7417    4.8375    0.0000 O   0  0  0  0  0  0  0  0  0  0  0  0
   -5.4083    2.9333    0.0000 C   0  0  0  0  0  0  0  0  0  0  0  0
   13.9292   -0.2042    0.0000 C   0  0  0  0  0  0  0  0  0  0  0  0
   13.9917   -5.8125    0.0000 C   0  0  0  0  0  0  0  0  0  0  0  0
   16.0000   -2.9875    0.0000 C   0  0  0  0  0  0  0  0  0  0  0  0
  -14.2667    5.8417    0.0000 C   0  0  0  0  0  0  0  0  0  0  0  0
  -10.6417   -0.1250    0.0000 C   0  0  0  0  0  0  0  0  0  0  0  0
   13.6292    2.8208    0.0000 C   0  0  0  0  0  0  0  0  0  0  0  0
  -16.0000    2.8000    0.0000 C   0  0  0  0  0  0  0  0  0  0  0  0
  -14.1542   -0.1917    0.0000 C   0  0  0  0  0  0  0  0  0  0  0  0
  2  1  2  0  0  0  0
  3  1  1  0  0  0  0
  4  2  1  0  0  0  0
  5  1  1  0  0  0  0
  6  3  1  0  0  0  0
  7  5  1  0  0  0  0
  8  2  1  0  0  0  0
  9  7  2  0  0  0  0
 10  7  1  0  0  0  0
 11 13  2  0  0  0  0
 12  8  2  0  0  0  0
 13 15  1  0  0  0  0
 14  8  1  0  0  0  0
 15 10  1  0  0  0  0
 16  4  1  0  0  0  0
 17  6  1  0  0  0  0
 18 17  1  0  0  0  0
 19 11  1  0  0  0  0
 20 13  1  0  0  0  0
 21 14  1  0  0  0  0
 22 23  1  0  0  0  0
 23 20  2  0  0  0  0
  4  6  2  0  0  0  0
 18 16  1  0  0  0  0
 22 19  2  0  0  0  0
M  END
> <#>
1450

> <PLATE>
LAT019

> <ROW>
B

> <COL>
3

> <COORD>
B03

> <LATID>
LAT019B03

> <Supplier>
Chembridge

> <Suplier_CAT#>
7833546

> <Name>
Novel

> <Concentration_(mM)>
2.5

> <IC50_(µM)>
>100

> <Yeast_Active?>
-

> <Pubchem_CID>
971892

$$$$
