
  -ISIS-  08130814242D

 23 24  0  0  0  0  0  0  0  0999 V2000
   -1.3458   -0.9667    0.0000 N   0  0  0  0  0  0  0  0  0  0  0  0
    1.8792   -0.9542    0.0000 C   0  0  0  0  0  0  0  0  0  0  0  0
   -0.0625   -1.1167    0.0000 C   0  0  0  0  0  0  0  0  0  0  0  0
    1.9542   -0.2375    0.0000 N   0  0  0  0  0  0  0  0  0  0  0  0
   -0.6625   -0.6792    0.0000 N   0  0  0  0  0  0  0  0  0  0  0  0
   -3.4333   -1.8167    0.0000 N   0  0  0  0  0  0  0  0  0  0  0  0
    1.3542    0.2208    0.0000 C   0  0  0  0  0  0  0  0  0  0  0  0
    2.4792   -1.4000    0.0000 O   0  0  0  0  0  0  0  0  0  0  0  0
   -0.1625   -1.8375    0.0000 O   0  0  0  0  0  0  0  0  0  0  0  0
   -1.9458   -0.5167    0.0000 C   0  0  0  0  0  0  0  0  0  0  0  0
   -2.6333   -0.8000    0.0000 C   0  0  0  0  0  0  0  0  0  0  0  0
    1.4542    0.9625    0.0000 C   0  0  0  0  0  0  0  0  0  0  0  0
    1.2000   -1.2542    0.0000 C   0  0  0  0  0  0  0  0  0  0  0  0
    0.6167   -0.8167    0.0000 C   0  0  0  0  0  0  0  0  0  0  0  0
    0.8542    1.4000    0.0000 C   0  0  0  0  0  0  0  0  0  0  0  0
   -2.7500   -1.5292    0.0000 C   0  0  0  0  0  0  0  0  0  0  0  0
    0.1000    0.3625    0.0000 C   0  0  0  0  0  0  0  0  0  0  0  0
   -4.0333   -1.3667    0.0000 C   0  0  0  0  0  0  0  0  0  0  0  0
    0.6792   -0.0792    0.0000 C   0  0  0  0  0  0  0  0  0  0  0  0
   -3.2333   -0.3500    0.0000 C   0  0  0  0  0  0  0  0  0  0  0  0
    0.1792    1.1000    0.0000 C   0  0  0  0  0  0  0  0  0  0  0  0
    0.9167    2.1625    0.0000 C   0  0  0  0  0  0  0  0  0  0  0  0
   -3.9333   -0.6292    0.0000 C   0  0  0  0  0  0  0  0  0  0  0  0
  2 13  1  0  0  0  0
  3  5  1  0  0  0  0
  4  2  1  0  0  0  0
  5  1  1  0  0  0  0
  6 16  2  0  0  0  0
  7  4  1  0  0  0  0
  8  2  2  0  0  0  0
  9  3  2  0  0  0  0
 10  1  2  0  0  0  0
 11 10  1  0  0  0  0
 12  7  2  0  0  0  0
 13 14  1  0  0  0  0
 14  3  1  0  0  0  0
 15 12  1  0  0  0  0
 16 11  1  0  0  0  0
 17 19  2  0  0  0  0
 18 23  2  0  0  0  0
 19  7  1  0  0  0  0
 20 11  2  0  0  0  0
 21 17  1  0  0  0  0
 22 15  1  0  0  0  0
 23 20  1  0  0  0  0
  6 18  1  0  0  0  0
 21 15  2  0  0  0  0
M  END
> <#>
1637

> <PLATE>
LAT021

> <ROW>
E

> <COL>
6

> <COORD>
E06

> <LATID>
LAT021E06

> <Supplier>
Chembridge

> <Suplier_CAT#>
5480612

> <Name>
Novel

> <Concentration_(mM)>
2.5

> <IC50_(µM)>
>100

> <Yeast_Active?>
-

> <Pubchem_CID>
2246626

$$$$
