
  -ISIS-  08130814242D

 24 25  0  0  0  0  0  0  0  0999 V2000
    0.9750   -2.8042    0.0000 N   0  3  0  0  0  0  0  0  0  0  0  0
    3.1250   -2.3875    0.0000 C   0  0  0  0  0  0  0  0  0  0  0  0
    2.4125   -2.8000    0.0000 C   0  0  0  0  0  0  0  0  0  0  0  0
    1.6917   -2.3875    0.0000 C   0  0  0  0  0  0  0  0  0  0  0  0
    3.8417   -2.8000    0.0000 C   0  0  0  0  0  0  0  0  0  0  0  0
    4.5542   -2.3875    0.0000 C   0  0  0  0  0  0  0  0  0  0  0  0
    0.2542   -2.3917    0.0000 O   0  5  0  0  0  0  0  0  0  0  0  0
    6.7042   -1.1417    0.0000 C   0  0  0  0  0  0  0  0  0  0  0  0
    4.5542   -1.5542    0.0000 C   0  0  0  0  0  0  0  0  0  0  0  0
    3.1250   -1.5542    0.0000 C   0  0  0  0  0  0  0  0  0  0  0  0
    0.9792   -3.6292    0.0000 O   0  0  0  0  0  0  0  0  0  0  0  0
    6.7042   -0.3167    0.0000 C   0  0  0  0  0  0  0  0  0  0  0  0
    5.9875   -1.5542    0.0000 C   0  0  0  0  0  0  0  0  0  0  0  0
    1.6917   -1.5542    0.0000 C   0  0  0  0  0  0  0  0  0  0  0  0
    3.8417   -3.6292    0.0000 O   0  0  0  0  0  0  0  0  0  0  0  0
    2.4125   -1.1417    0.0000 C   0  0  0  0  0  0  0  0  0  0  0  0
    5.2750   -1.1417    0.0000 C   0  0  0  0  0  0  0  0  0  0  0  0
    5.9875    0.0958    0.0000 C   0  0  0  0  0  0  0  0  0  0  0  0
    5.2750   -0.3167    0.0000 C   0  0  0  0  0  0  0  0  0  0  0  0
    7.4250   -1.5542    0.0000 O   0  0  0  0  0  0  0  0  0  0  0  0
    3.8417   -1.1292    0.0000 O   0  0  0  0  0  0  0  0  0  0  0  0
    7.4250    0.1083    0.0000 O   0  0  0  0  0  0  0  0  0  0  0  0
    8.1375   -1.1375    0.0000 C   0  0  0  0  0  0  0  0  0  0  0  0
    8.1417   -0.3042    0.0000 C   0  0  0  0  0  0  0  0  0  0  0  0
  2  3  1  0  0  0  0
  3  4  2  0  0  0  0
  4  1  1  0  0  0  0
  5  2  1  0  0  0  0
  6  5  1  0  0  0  0
  7  1  1  0  0  0  0
  8 13  1  0  0  0  0
  9  6  2  0  0  0  0
 10 16  1  0  0  0  0
 11  1  2  0  0  0  0
 12 18  1  0  0  0  0
 13 17  2  0  0  0  0
 14  4  1  0  0  0  0
 15  5  2  0  0  0  0
 16 14  2  0  0  0  0
 17  9  1  0  0  0  0
 18 19  2  0  0  0  0
 19 17  1  0  0  0  0
 20  8  1  0  0  0  0
 21 10  1  0  0  0  0
 22 12  1  0  0  0  0
 23 20  1  0  0  0  0
 24 22  1  0  0  0  0
  2 10  2  0  0  0  0
 12  8  2  0  0  0  0
M  CHG  2   1   1   7  -1
M  END
> <#>
1316

> <PLATE>
LAT017

> <ROW>
D

> <COL>
6

> <COORD>
D06

> <LATID>
LAT017D06

> <Supplier>
Chembridge

> <Suplier_CAT#>
7008036

> <Name>
Novel

> <Concentration_(mM)>
2.5

> <IC50_(µM)>
inactive

> <Yeast_Active?>
-

> <Pubchem_CID>
2923028

$$$$
