
  -ISIS-  08130814242D

 29 30  0  0  0  0  0  0  0  0999 V2000
   -3.4333    0.2958    0.0000 N   0  3  0  0  0  0  0  0  0  0  0  0
   -1.1208    0.2958    0.0000 C   0  0  0  0  0  0  0  0  0  0  0  0
   -4.5708   -0.3667    0.0000 C   0  0  0  0  0  0  0  0  0  0  0  0
    1.6042    0.9708    0.0000 C   0  0  0  0  0  0  0  0  0  0  0  0
    1.2292    0.2833    0.0000 C   0  0  0  0  0  0  0  0  0  0  0  0
   -4.2208    0.2958    0.0000 C   0  0  0  0  0  0  0  0  0  0  0  0
    0.0542    0.9708    0.0000 N   0  0  0  0  0  0  0  0  0  0  0  0
    2.3792    0.9708    0.0000 C   0  0  0  0  0  0  0  0  0  0  0  0
   -1.8958    0.2958    0.0000 C   0  0  0  0  0  0  0  0  0  0  0  0
   -0.7208    0.9708    0.0000 N   0  0  0  0  0  0  0  0  0  0  0  0
   -0.7208   -0.3875    0.0000 O   0  0  0  0  0  0  0  0  0  0  0  0
   -4.1958   -1.0292    0.0000 O   0  0  0  0  0  0  0  0  0  0  0  0
   -3.0500   -0.3875    0.0000 C   0  0  0  0  0  0  0  0  0  0  0  0
   -3.0625    0.9625    0.0000 C   0  0  0  0  0  0  0  0  0  0  0  0
    0.4500    0.2833    0.0000 C   0  0  0  0  0  0  0  0  0  0  0  0
   -5.3500   -0.3667    0.0000 C   0  0  0  0  0  0  0  0  0  0  0  0
    1.6042   -0.4000    0.0000 C   0  0  0  0  0  0  0  0  0  0  0  0
   -2.2833    0.9625    0.0000 C   0  0  0  0  0  0  0  0  0  0  0  0
   -2.2708   -0.3875    0.0000 C   0  0  0  0  0  0  0  0  0  0  0  0
    2.7875    0.2833    0.0000 C   0  0  0  0  0  0  0  0  0  0  0  0
    1.2292    1.6458    0.0000 Cl  0  0  0  0  0  0  0  0  0  0  0  0
    2.4000   -0.4000    0.0000 C   0  0  0  0  0  0  0  0  0  0  0  0
    3.5667    0.2833    0.0000 Cl  0  0  0  0  0  0  0  0  0  0  0  0
   -5.7500   -1.0667    0.0000 C   0  0  0  0  0  0  0  0  0  0  0  0
   -5.7500    0.2958    0.0000 C   0  0  0  0  0  0  0  0  0  0  0  0
   -6.5542    0.2833    0.0000 C   0  0  0  0  0  0  0  0  0  0  0  0
   -6.5292   -1.0667    0.0000 C   0  0  0  0  0  0  0  0  0  0  0  0
   -6.9375   -0.3875    0.0000 C   0  0  0  0  0  0  0  0  0  0  0  0
   -4.7500    1.5625    0.0000 Br  0  5  0  0  0  0  0  0  0  0  0  0
  2  9  1  0  0  0  0
  3  6  1  0  0  0  0
  4  5  2  0  0  0  0
  5 15  1  0  0  0  0
  6  1  1  0  0  0  0
  7 10  1  0  0  0  0
  8  4  1  0  0  0  0
  9 18  2  0  0  0  0
 10  2  1  0  0  0  0
 11  2  2  0  0  0  0
 12  3  2  0  0  0  0
 13  1  1  0  0  0  0
 14  1  2  0  0  0  0
 15  7  2  0  0  0  0
 16  3  1  0  0  0  0
 17  5  1  0  0  0  0
 18 14  1  0  0  0  0
 19 13  2  0  0  0  0
 20 22  1  0  0  0  0
 21  4  1  0  0  0  0
 22 17  2  0  0  0  0
 23 20  1  0  0  0  0
 24 16  2  0  0  0  0
 25 16  1  0  0  0  0
 26 25  2  0  0  0  0
 27 24  1  0  0  0  0
 28 26  1  0  0  0  0
 19  9  1  0  0  0  0
 27 28  2  0  0  0  0
 20  8  2  0  0  0  0
M  CHG  2   1   1  29  -1
M  END
> <#>
641

> <PLATE>
LAT009

> <ROW>
A

> <COL>
2

> <COORD>
A02

> <LATID>
LAT009A02

> <Supplier>
Chembridge

> <Suplier_CAT#>
5490011

> <Name>
Novel

> <Sec_Name>
148_B11

> <Concentration_(mM)>
2.5

> <IC50_(µM)>
>100

> <Yeast_Active?>
-

> <Pubchem_CID>
2246904

$$$$
