
  -ISIS-  08130814242D

 21 24  0  0  0  0  0  0  0  0999 V2000
    6.5333   -3.8208    0.0000 C   0  0  0  0  0  0  0  0  0  0  0  0
    6.9694   -4.5146    0.0000 C   0  0  0  0  0  0  0  0  0  0  0  0
    7.7772   -4.3091    0.0000 N   0  0  0  0  0  0  0  0  0  0  0  0
    7.8257   -3.4967    0.0000 C   0  0  0  0  0  0  0  0  0  0  0  0
    8.4747   -2.9917    0.0000 C   0  0  0  0  0  0  0  0  0  0  0  0
    8.3580   -2.1740    0.0000 C   0  0  0  0  0  0  0  0  0  0  0  0
    7.5946   -1.8668    0.0000 C   0  0  0  0  0  0  0  0  0  0  0  0
    6.9479   -2.3772    0.0000 C   0  0  0  0  0  0  0  0  0  0  0  0
    7.0623   -3.1895    0.0000 C   0  0  0  0  0  0  0  0  0  0  0  0
    5.2324   -4.4876    0.0000 N   0  0  0  0  0  0  0  0  0  0  0  0
    5.7122   -3.8233    0.0000 C   0  0  0  0  0  0  0  0  0  0  0  0
    5.2190   -3.1514    0.0000 C   0  0  0  0  0  0  0  0  0  0  0  0
    4.4476   -3.4108    0.0000 C   0  0  0  0  0  0  0  0  0  0  0  0
    3.7361   -2.9984    0.0000 C   0  0  0  0  0  0  0  0  0  0  0  0
    3.0218   -3.4130    0.0000 C   0  0  0  0  0  0  0  0  0  0  0  0
    3.0231   -4.2360    0.0000 C   0  0  0  0  0  0  0  0  0  0  0  0
    3.7387   -4.6443    0.0000 C   0  0  0  0  0  0  0  0  0  0  0  0
    4.4488   -4.2338    0.0000 C   0  0  0  0  0  0  0  0  0  0  0  0
    6.5500   -5.2250    0.0000 O   0  0  0  0  0  0  0  0  0  0  0  0
    5.6250   -2.4333    0.0000 N   0  0  0  0  0  0  0  0  0  0  0  0
    5.0375   -1.8458    0.0000 O   0  0  0  0  0  0  0  0  0  0  0  0
  2  3  1  0  0  0  0
  3  4  1  0  0  0  0
 10 11  1  0  0  0  0
 11 12  1  0  0  0  0
 12 13  1  0  0  0  0
 18 10  1  0  0  0  0
  9  1  1  0  0  0  0
  4  9  2  0  0  0  0
  4  5  1  0  0  0  0
  5  6  2  0  0  0  0
  6  7  1  0  0  0  0
 13 18  2  0  0  0  0
 13 14  1  0  0  0  0
 14 15  2  0  0  0  0
 15 16  1  0  0  0  0
 16 17  2  0  0  0  0
 17 18  1  0  0  0  0
 11  1  2  0  0  0  0
  7  8  2  0  0  0  0
  2 19  2  0  0  0  0
  8  9  1  0  0  0  0
 12 20  2  0  0  0  0
  1  2  1  0  0  0  0
 20 21  1  0  0  0  0
M  END
> <#>
236

> <PLATE>
LAT003

> <ROW>
D

> <COL>
11

> <COORD>
D11

> <LATID>
LAT003D11

> <Supplier>
Sigma

> <Suplier_CAT#>
I 0404

> <Name>
Indirubin-3'-Oxime

> <Concentration_(mM)>
2.5

> <IC50_(µM)>
>100

> <Yeast_Active?>
-

> <Pubchem_CID>
5326739

> <Description>
Cyclin dependent kinase (CDK) inhibitor; competes with ATP for catalytic subunit binding

$$$$
