
  -ISIS-  08130814242D

 17 18  0  0  0  0  0  0  0  0999 V2000
   -2.2458   -1.4500    0.0000 C   0  0  0  0  0  0  0  0  0  0  0  0
   -1.5208   -1.4500    0.0000 C   0  0  0  0  0  0  0  0  0  0  0  0
   -1.8833   -1.6667    0.0000 C   0  0  0  0  0  0  0  0  0  0  0  0
   -2.6000   -1.6667    0.0000 C   0  0  0  0  0  0  0  0  0  0  0  0
   -1.5208   -1.0500    0.0000 C   0  0  0  0  0  0  0  0  0  0  0  0
   -2.9625   -1.4500    0.0000 N   0  0  0  0  0  0  0  0  0  0  0  0
   -2.2458   -1.0500    0.0000 C   0  0  0  0  0  0  0  0  0  0  0  0
   -1.8833   -0.8292    0.0000 C   0  0  0  0  0  0  0  0  0  0  0  0
   -3.7000   -2.2667    0.0000 N   0  0  0  0  0  0  0  0  0  0  0  0
   -1.1458   -1.6667    0.0000 Cl  0  0  0  0  0  0  0  0  0  0  0  0
   -3.3458   -1.6500    0.0000 C   0  0  0  0  0  0  0  0  0  0  0  0
   -1.8833   -2.0875    0.0000 O   0  0  0  0  0  0  0  0  0  0  0  0
   -1.8833   -0.4042    0.0000 Cl  0  0  0  0  0  0  0  0  0  0  0  0
   -3.3458   -2.0667    0.0000 C   0  0  0  0  0  0  0  0  0  0  0  0
   -4.0625   -2.0500    0.0000 C   0  0  0  0  0  0  0  0  0  0  0  0
   -3.6833   -1.4292    0.0000 C   0  0  0  0  0  0  0  0  0  0  0  0
   -4.0625   -1.6292    0.0000 C   0  0  0  0  0  0  0  0  0  0  0  0
  2  3  2  0  0  0  0
  3  1  1  0  0  0  0
  4  1  1  0  0  0  0
  5  8  2  0  0  0  0
  6  4  2  0  0  0  0
  7  1  2  0  0  0  0
  8  7  1  0  0  0  0
  9 14  1  0  0  0  0
 10  2  1  0  0  0  0
 11  6  1  0  0  0  0
 12  3  1  0  0  0  0
 13  8  1  0  0  0  0
 14 11  2  0  0  0  0
 15 17  1  0  0  0  0
 16 11  1  0  0  0  0
 17 16  2  0  0  0  0
  2  5  1  0  0  0  0
 15  9  2  0  0  0  0
M  END
> <#>
1979

> <PLATE>
LAT025

> <ROW>
C

> <COL>
9

> <COORD>
C09

> <LATID>
LAT025C09

> <Supplier>
Chembridge

> <Suplier_CAT#>
5475114

> <Sec_Name>
138_F03

> <Concentration_(mM)>
2.5

> <IC50_(µM)>
>100

> <Yeast_Active?>
+

> <Pubchem_CID>
NULL

$$$$
