
  -ISIS-  08130814242D

 28 30  0  0  0  0  0  0  0  0999 V2000
    1.1667   -0.1542    0.0000 N   0  0  3  0  0  0  0  0  0  0  0  0
    1.2500    0.6208    0.0000 C   0  0  0  0  0  0  0  0  0  0  0  0
   -1.9708    1.0125    0.0000 C   0  0  0  0  0  0  0  0  0  0  0  0
   -2.4333    0.3833    0.0000 N   0  0  3  0  0  0  0  0  0  0  0  0
    0.3875   -0.3375    0.0000 C   0  0  0  0  0  0  0  0  0  0  0  0
   -0.0125    0.3500    0.0000 C   0  0  0  0  0  0  0  0  0  0  0  0
    0.5292    0.9208    0.0000 S   0  0  0  0  0  0  0  0  0  0  0  0
   -2.4333    1.6458    0.0000 S   0  0  0  0  0  0  0  0  0  0  0  0
   -3.1708    0.6208    0.0000 C   0  0  0  0  0  0  0  0  0  0  0  0
   -3.1708    1.4000    0.0000 C   0  0  0  0  0  0  0  0  0  0  0  0
   -1.1958    1.0125    0.0000 C   0  0  0  0  0  0  0  0  0  0  0  0
   -0.7958    0.3500    0.0000 C   0  0  0  0  0  0  0  0  0  0  0  0
   -2.1708   -0.3667    0.0000 C   0  0  0  0  0  0  0  0  0  0  0  0
   -3.8500    0.2333    0.0000 C   0  0  0  0  0  0  0  0  0  0  0  0
    1.9500    1.0125    0.0000 S   0  0  0  0  0  0  0  0  0  0  0  0
   -1.4125   -0.5500    0.0000 C   0  0  0  0  0  0  0  0  0  0  0  0
   -1.1708   -1.2667    0.0000 C   0  0  0  0  0  0  0  0  0  0  0  0
    0.0667   -1.0542    0.0000 O   0  0  0  0  0  0  0  0  0  0  0  0
   -3.8500    1.7958    0.0000 C   0  0  0  0  0  0  0  0  0  0  0  0
   -0.4125   -1.4500    0.0000 O   0  0  0  0  0  0  0  0  0  0  0  0
    1.7500   -0.7000    0.0000 C   0  0  0  0  0  0  0  0  0  0  0  0
   -4.5333    0.6208    0.0000 C   0  0  0  0  0  0  0  0  0  0  0  0
   -4.5333    1.4000    0.0000 C   0  0  0  0  0  0  0  0  0  0  0  0
   -1.6708   -1.8667    0.0000 O   0  0  0  0  0  0  0  0  0  0  0  0
   -5.2208    0.2000    0.0000 O   0  0  0  0  0  0  0  0  0  0  0  0
   -2.4500   -1.6875    0.0000 C   0  0  0  0  0  0  0  0  0  0  0  0
   -5.8958    0.5958    0.0000 C   0  0  0  0  0  0  0  0  0  0  0  0
   -2.9500   -2.2875    0.0000 C   0  0  0  0  0  0  0  0  0  0  0  0
  2  1  1  0  0  0  0
  3 11  2  0  0  0  0
  4  3  1  0  0  0  0
  5  1  1  0  0  0  0
  6  5  1  0  0  0  0
  7  2  1  0  0  0  0
  8  3  1  0  0  0  0
  9  4  1  0  0  0  0
 10  8  1  0  0  0  0
 11 12  1  0  0  0  0
 12  6  2  0  0  0  0
 13  4  1  0  0  0  0
 14  9  1  0  0  0  0
 15  2  2  0  0  0  0
 16 13  1  0  0  0  0
 17 16  1  0  0  0  0
 18  5  2  0  0  0  0
 19 10  1  0  0  0  0
 20 17  2  0  0  0  0
 21  1  1  0  0  0  0
 22 14  2  0  0  0  0
 23 19  2  0  0  0  0
 24 17  1  0  0  0  0
 25 22  1  0  0  0  0
 26 24  1  0  0  0  0
 27 25  1  0  0  0  0
 28 26  1  0  0  0  0
  6  7  1  0  0  0  0
 10  9  2  0  0  0  0
 23 22  1  0  0  0  0
M  END
> <#>
2060

> <PLATE>
LAT026

> <ROW>
D

> <COL>
9

> <COORD>
D09

> <LATID>
LAT026D09

> <Supplier>
Chembridge

> <Suplier_CAT#>
5647476

> <Sec_Name>
197_F09

> <Concentration_(mM)>
2.5

> <IC50_(µM)>
>100

> <Yeast_Active?>
-

> <Pubchem_CID>
1354186

$$$$
