
  -ISIS-  08130814242D

 22 23  0  0  0  0  0  0  0  0999 V2000
    5.5125    0.6583    0.0000 C   0  0  0  0  0  0  0  0  0  0  0  0
    2.1292    1.3083    0.0000 C   0  0  0  0  0  0  0  0  0  0  0  0
    5.1375    1.3083    0.0000 N   0  0  0  0  0  0  0  0  0  0  0  0
    2.8875    1.3083    0.0000 C   0  0  0  0  0  0  0  0  0  0  0  0
    6.2625    0.6583    0.0000 N   0  0  0  0  0  0  0  0  0  0  0  0
    7.7625   -0.6417    0.0000 N   0  0  0  0  0  0  0  0  0  0  0  0
    5.1375    0.0083    0.0000 O   0  0  0  0  0  0  0  0  0  0  0  0
    1.7625    0.6583    0.0000 O   0  0  0  0  0  0  0  0  0  0  0  0
    3.2625    0.6583    0.0000 C   0  0  0  0  0  0  0  0  0  0  0  0
    3.2625    1.9583    0.0000 C   0  0  0  0  0  0  0  0  0  0  0  0
    4.3875    1.3083    0.0000 C   0  0  0  0  0  0  0  0  0  0  0  0
    7.3875    0.0083    0.0000 C   0  0  0  0  0  0  0  0  0  0  0  0
    6.6375    0.0083    0.0000 C   0  0  0  0  0  0  0  0  0  0  0  0
    1.7625    1.9583    0.0000 O   0  0  0  0  0  0  0  0  0  0  0  0
    4.0125    0.6583    0.0000 C   0  0  0  0  0  0  0  0  0  0  0  0
    4.0125    1.9583    0.0000 C   0  0  0  0  0  0  0  0  0  0  0  0
    8.5125   -0.6417    0.0000 C   0  0  0  0  0  0  0  0  0  0  0  0
    1.0125    1.9583    0.0000 C   0  0  0  0  0  0  0  0  0  0  0  0
    7.7625    0.6583    0.0000 C   0  0  0  0  0  0  0  0  0  0  0  0
    0.6375    2.6083    0.0000 C   0  0  0  0  0  0  0  0  0  0  0  0
    8.8875    0.0083    0.0000 C   0  0  0  0  0  0  0  0  0  0  0  0
    8.5125    0.6583    0.0000 C   0  0  0  0  0  0  0  0  0  0  0  0
  2  4  1  0  0  0  0
  3  1  1  0  0  0  0
  4 10  2  0  0  0  0
  5  1  1  0  0  0  0
  6 12  2  0  0  0  0
  7  1  2  0  0  0  0
  8  2  2  0  0  0  0
  9 15  2  0  0  0  0
 10 16  1  0  0  0  0
 11  3  1  0  0  0  0
 12 13  1  0  0  0  0
 13  5  1  0  0  0  0
 14  2  1  0  0  0  0
 15 11  1  0  0  0  0
 16 11  2  0  0  0  0
 17  6  1  0  0  0  0
 18 14  1  0  0  0  0
 19 12  1  0  0  0  0
 20 18  1  0  0  0  0
 21 22  1  0  0  0  0
 22 19  2  0  0  0  0
  9  4  1  0  0  0  0
 17 21  2  0  0  0  0
M  END
> <#>
1474

> <PLATE>
LAT019

> <ROW>
B

> <COL>
6

> <COORD>
B06

> <LATID>
LAT019B06

> <Supplier>
Chembridge

> <Suplier_CAT#>
9045849

> <Name>
Novel

> <Concentration_(mM)>
2.5

> <IC50_(µM)>
25

> <Yeast_Active?>
-

> <Pubchem_CID>
6466060

$$$$
