
  -ISIS-  08130814242D

 22 24  0  0  0  0  0  0  0  0999 V2000
    4.7167    3.4833    0.0000 N   0  0  0  0  0  0  0  0  0  0  0  0
    3.6042    2.9875    0.0000 C   0  0  3  0  0  0  0  0  0  0  0  0
    3.9792    3.6458    0.0000 O   0  0  0  0  0  0  0  0  0  0  0  0
    4.7917    2.7333    0.0000 C   0  0  0  0  0  0  0  0  0  0  0  0
    2.8625    2.9083    0.0000 C   0  0  0  0  0  0  0  0  0  0  0  0
    4.1042    2.4333    0.0000 C   0  0  0  0  0  0  0  0  0  0  0  0
    2.5542    2.2250    0.0000 N   0  0  0  0  0  0  0  0  0  0  0  0
    5.4417    2.3583    0.0000 C   0  0  0  0  0  0  0  0  0  0  0  0
    0.7542    1.3833    0.0000 N   0  0  0  0  0  0  0  0  0  0  0  0
    2.4167    3.5208    0.0000 O   0  0  0  0  0  0  0  0  0  0  0  0
    5.4417    1.6083    0.0000 C   0  0  0  0  0  0  0  0  0  0  0  0
    1.8125    2.1458    0.0000 C   0  0  0  0  0  0  0  0  0  0  0  0
    1.5042    1.4583    0.0000 C   0  0  0  0  0  0  0  0  0  0  0  0
    6.0917    1.2333    0.0000 C   0  0  0  0  0  0  0  0  0  0  0  0
    6.0917    0.4833    0.0000 Br  0  0  0  0  0  0  0  0  0  0  0  0
    6.0917    2.7333    0.0000 C   0  0  0  0  0  0  0  0  0  0  0  0
    6.7417    2.3583    0.0000 C   0  0  0  0  0  0  0  0  0  0  0  0
    0.4542    0.6958    0.0000 C   0  0  0  0  0  0  0  0  0  0  0  0
    6.7417    1.6083    0.0000 C   0  0  0  0  0  0  0  0  0  0  0  0
    1.9417    0.8583    0.0000 C   0  0  0  0  0  0  0  0  0  0  0  0
    0.8917    0.0875    0.0000 C   0  0  0  0  0  0  0  0  0  0  0  0
    1.6417    0.1708    0.0000 C   0  0  0  0  0  0  0  0  0  0  0  0
  2  3  1  0  0  0  0
  3  1  1  0  0  0  0
  4  1  2  0  0  0  0
  5  2  1  0  0  0  0
  6  4  1  0  0  0  0
  7  5  1  0  0  0  0
  8  4  1  0  0  0  0
  9 13  2  0  0  0  0
 10  5  2  0  0  0  0
 11  8  1  0  0  0  0
 12  7  1  0  0  0  0
 13 12  1  0  0  0  0
 14 11  2  0  0  0  0
 15 14  1  0  0  0  0
 16  8  2  0  0  0  0
 17 16  1  0  0  0  0
 18  9  1  0  0  0  0
 19 17  2  0  0  0  0
 20 13  1  0  0  0  0
 21 22  1  0  0  0  0
 22 20  2  0  0  0  0
  2  6  1  0  0  0  0
 14 19  1  0  0  0  0
 18 21  2  0  0  0  0
M  END
> <#>
1540

> <PLATE>
LAT020

> <ROW>
D

> <COL>
4

> <COORD>
D04

> <LATID>
LAT020D04

> <Supplier>
Chembridge

> <Suplier_CAT#>
7904972

> <Name>
Novel

> <Concentration_(mM)>
2.5

> <IC50_(µM)>
>100

> <Yeast_Active?>
-

> <Pubchem_CID>
1093675

$$$$
