
  -ISIS-  08130814242D

 30 31  0  0  0  0  0  0  0  0999 V2000
    1.9542   -3.0875    0.0000 C   0  0  0  0  0  0  0  0  0  0  0  0
    3.7250   -3.0167    0.0000 C   0  0  0  0  0  0  0  0  0  0  0  0
    2.8375   -2.5500    0.0000 C   0  0  3  0  0  0  0  0  0  0  0  0
    1.9542   -4.0792    0.0000 C   0  0  0  0  0  0  0  0  0  0  0  0
    3.7250   -4.0167    0.0000 C   0  0  0  0  0  0  0  0  0  0  0  0
    1.0917   -2.6000    0.0000 C   0  0  0  0  0  0  0  0  0  0  0  0
    2.8375   -4.5417    0.0000 N   0  0  0  0  0  0  0  0  0  0  0  0
    4.5625    0.4708    0.0000 N   0  3  0  0  0  0  0  0  0  0  0  0
    2.8375   -1.5500    0.0000 C   0  0  0  0  0  0  0  0  0  0  0  0
    4.5792   -2.5000    0.0000 C   0  0  0  0  0  0  0  0  0  0  0  0
    3.7000   -0.0292    0.0000 C   0  0  0  0  0  0  0  0  0  0  0  0
    3.7000   -1.0292    0.0000 C   0  0  0  0  0  0  0  0  0  0  0  0
    1.0750   -1.6042    0.0000 O   0  0  0  0  0  0  0  0  0  0  0  0
    5.4250   -0.0292    0.0000 O   0  5  0  0  0  0  0  0  0  0  0  0
    4.5625    1.4708    0.0000 O   0  0  0  0  0  0  0  0  0  0  0  0
    0.2292   -3.1042    0.0000 O   0  0  0  0  0  0  0  0  0  0  0  0
    4.5625   -1.5000    0.0000 O   0  0  0  0  0  0  0  0  0  0  0  0
    5.4542   -2.9792    0.0000 O   0  0  0  0  0  0  0  0  0  0  0  0
    4.5917   -4.5042    0.0000 C   0  0  0  0  0  0  0  0  0  0  0  0
    1.1125   -4.6167    0.0000 C   0  0  0  0  0  0  0  0  0  0  0  0
    1.9792   -1.0500    0.0000 C   0  0  0  0  0  0  0  0  0  0  0  0
    0.2042   -1.1167    0.0000 C   0  0  3  0  0  0  0  0  0  0  0  0
    2.8375    0.4583    0.0000 C   0  0  0  0  0  0  0  0  0  0  0  0
    1.9792   -0.0292    0.0000 C   0  0  0  0  0  0  0  0  0  0  0  0
    8.0417   -2.4250    0.0000 O   0  0  0  0  0  0  0  0  0  0  0  0
    6.3125   -2.4625    0.0000 C   0  0  0  0  0  0  0  0  0  0  0  0
    7.1917   -2.9417    0.0000 C   0  0  0  0  0  0  0  0  0  0  0  0
    8.9250   -2.9042    0.0000 C   0  0  0  0  0  0  0  0  0  0  0  0
    0.1917   -0.1250    0.0000 C   0  0  0  0  0  0  0  0  0  0  0  0
   -0.6500   -1.6292    0.0000 C   0  0  0  0  0  0  0  0  0  0  0  0
  2  3  1  0  0  0  0
  3  1  1  0  0  0  0
  4  1  2  0  0  0  0
  5  7  1  0  0  0  0
  6  1  1  0  0  0  0
  7  4  1  0  0  0  0
  8 11  1  0  0  0  0
  9  3  1  0  0  0  0
 10  2  1  0  0  0  0
 11 12  2  0  0  0  0
 12  9  1  0  0  0  0
 13  6  1  0  0  0  0
 14  8  1  0  0  0  0
 15  8  2  0  0  0  0
 16  6  2  0  0  0  0
 17 10  2  0  0  0  0
 18 10  1  0  0  0  0
 19  5  1  0  0  0  0
 20  4  1  0  0  0  0
 21  9  2  0  0  0  0
 22 13  1  0  0  0  0
 23 24  2  0  0  0  0
 24 21  1  0  0  0  0
 25 27  1  0  0  0  0
 26 18  1  0  0  0  0
 27 26  1  0  0  0  0
 28 25  1  0  0  0  0
 29 22  1  0  0  0  0
 30 22  1  0  0  0  0
  2  5  2  0  0  0  0
 11 23  1  0  0  0  0
M  CHG  2   8   1  14  -1
M  END
> <#>
259

> <PLATE>
LAT004

> <ROW>
C

> <COL>
4

> <COORD>
C04

> <LATID>
LAT004C04

> <Supplier>
Sigma

> <Suplier_CAT#>
N-149

> <Name>
Nimodipine

> <Concentration_(mM)>
2.5

> <IC50_(µM)>
23

> <Yeast_Active?>
-

> <Pubchem_CID>
4497

> <Description>
Potent L-type Ca2+ channel antagonist

$$$$
