
  -ISIS-  08130814242D

 18 19  0  0  0  0  0  0  0  0999 V2000
   -0.4625    0.8625    0.0000 C   0  0  0  0  0  0  0  0  0  0  0  0
    0.2167    0.4625    0.0000 C   0  0  0  0  0  0  0  0  0  0  0  0
    2.2375    0.6833    0.0000 N   0  0  0  0  0  0  0  0  0  0  0  0
   -0.4625    1.6208    0.0000 C   0  0  0  0  0  0  0  0  0  0  0  0
   -1.1000    0.4833    0.0000 C   0  0  0  0  0  0  0  0  0  0  0  0
    1.5167    0.4625    0.0000 C   0  0  0  0  0  0  0  0  0  0  0  0
    2.6792    0.0833    0.0000 C   0  0  0  0  0  0  0  0  0  0  0  0
    2.2375   -0.5375    0.0000 S   0  0  0  0  0  0  0  0  0  0  0  0
    0.8792    0.8458    0.0000 C   0  0  0  0  0  0  0  0  0  0  0  0
   -1.1000    2.0000    0.0000 C   0  0  0  0  0  0  0  0  0  0  0  0
    1.5167   -0.3000    0.0000 C   0  0  0  0  0  0  0  0  0  0  0  0
   -1.7833    0.8625    0.0000 C   0  0  0  0  0  0  0  0  0  0  0  0
   -1.7833    1.6208    0.0000 C   0  0  0  0  0  0  0  0  0  0  0  0
    0.2000   -0.3000    0.0000 O   0  0  0  0  0  0  0  0  0  0  0  0
    0.2167    2.0208    0.0000 O   0  0  0  0  0  0  0  0  0  0  0  0
   -2.4458    2.0208    0.0000 O   0  0  0  0  0  0  0  0  0  0  0  0
   -1.1000   -0.2792    0.0000 C   0  0  0  0  0  0  0  0  0  0  0  0
    3.4375    0.0833    0.0000 C   0  0  0  0  0  0  0  0  0  0  0  0
  2  1  1  0  0  0  0
  3  6  1  0  0  0  0
  4  1  2  0  0  0  0
  5  1  1  0  0  0  0
  6  9  1  0  0  0  0
  7  3  2  0  0  0  0
  8 11  1  0  0  0  0
  9  2  1  0  0  0  0
 10  4  1  0  0  0  0
 11  6  2  0  0  0  0
 12  5  2  0  0  0  0
 13 12  1  0  0  0  0
 14  2  2  0  0  0  0
 15  4  1  0  0  0  0
 16 13  1  0  0  0  0
 17  5  1  0  0  0  0
 18  7  1  0  0  0  0
 13 10  2  0  0  0  0
  7  8  1  0  0  0  0
M  END
> <#>
1292

> <PLATE>
LAT017

> <ROW>
D

> <COL>
3

> <COORD>
D03

> <LATID>
LAT017D03

> <Supplier>
Chembridge

> <Suplier_CAT#>
6877016

> <Name>
Novel

> <Concentration_(mM)>
2.5

> <IC50_(µM)>
>100

> <Yeast_Active?>
-

> <Pubchem_CID>
728370

$$$$
