
  -ISIS-  08130814242D

 23 24  0  0  0  0  0  0  0  0999 V2000
   -0.4625   -1.4667    0.0000 C   0  0  0  0  0  0  0  0  0  0  0  0
    0.3375   -1.0000    0.0000 C   0  0  0  0  0  0  0  0  0  0  0  0
    1.1375   -1.4542    0.0000 C   0  0  3  0  0  0  0  0  0  0  0  0
   -1.2708   -1.0042    0.0000 C   0  0  0  0  0  0  0  0  0  0  0  0
   -2.0833   -1.4792    0.0000 C   0  0  0  0  0  0  0  0  0  0  0  0
    0.3375   -0.0667    0.0000 N   0  0  0  0  0  0  0  0  0  0  0  0
   -2.8958   -1.0042    0.0000 C   0  0  0  0  0  0  0  0  0  0  0  0
   -1.2708   -0.0792    0.0000 O   0  0  0  0  0  0  0  0  0  0  0  0
    1.9375   -1.9167    0.0000 F   0  0  0  0  0  0  0  0  0  0  0  0
    1.6042   -0.6500    0.0000 F   0  0  0  0  0  0  0  0  0  0  0  0
    0.6667   -2.2667    0.0000 F   0  0  0  0  0  0  0  0  0  0  0  0
    1.1375    0.4000    0.0000 C   0  0  0  0  0  0  0  0  0  0  0  0
   -2.8958   -0.0792    0.0000 O   0  0  0  0  0  0  0  0  0  0  0  0
    1.1375    1.3208    0.0000 C   0  0  0  0  0  0  0  0  0  0  0  0
   -2.0833   -2.4167    0.0000 C   0  0  0  0  0  0  0  0  0  0  0  0
   -3.7000   -1.4792    0.0000 C   0  0  0  0  0  0  0  0  0  0  0  0
    0.3375    1.7958    0.0000 C   0  0  0  0  0  0  0  0  0  0  0  0
    1.9375    1.7833    0.0000 C   0  0  0  0  0  0  0  0  0  0  0  0
   -2.8958   -2.8875    0.0000 C   0  0  0  0  0  0  0  0  0  0  0  0
   -3.7000   -2.4167    0.0000 C   0  0  0  0  0  0  0  0  0  0  0  0
    0.3375    2.7333    0.0000 C   0  0  0  0  0  0  0  0  0  0  0  0
    1.9500    2.7125    0.0000 C   0  0  0  0  0  0  0  0  0  0  0  0
    1.1375    3.1833    0.0000 C   0  0  0  0  0  0  0  0  0  0  0  0
  2  1  2  0  0  0  0
  3  2  1  0  0  0  0
  4  1  1  0  0  0  0
  5  4  1  0  0  0  0
  6  2  1  0  0  0  0
  7  5  1  0  0  0  0
  8  4  2  0  0  0  0
  9  3  1  0  0  0  0
 10  3  1  0  0  0  0
 11  3  1  0  0  0  0
 12  6  1  0  0  0  0
 13  7  1  0  0  0  0
 14 12  1  0  0  0  0
 15  5  2  0  0  0  0
 16  7  2  0  0  0  0
 17 14  1  0  0  0  0
 18 14  2  0  0  0  0
 19 15  1  0  0  0  0
 20 19  2  0  0  0  0
 21 17  2  0  0  0  0
 22 18  1  0  0  0  0
 23 22  2  0  0  0  0
 20 16  1  0  0  0  0
 23 21  1  0  0  0  0
M  END
> <#>
1165

> <PLATE>
LAT015

> <ROW>
E

> <COL>
7

> <COORD>
E07

> <LATID>
LAT015E07

> <Supplier>
Chembridge

> <Suplier_CAT#>
5484675

> <Name>
Novel

> <Sec_Name>
142_H10

> <Concentration_(mM)>
2.5

> <IC50_(µM)>
inactive

> <Yeast_Active?>
-

> <Pubchem_CID>
870532

$$$$
