
  -ISIS-  08130814242D

 27 30  0  0  0  0  0  0  0  0999 V2000
    0.3500    0.0000    0.0000 N   0  0  3  0  0  0  0  0  0  0  0  0
   -0.0333    1.1208    0.0000 N   0  0  3  0  0  0  0  0  0  0  0  0
    0.0042   -0.3000    0.0000 C   0  0  0  0  0  0  0  0  0  0  0  0
    0.7292   -0.2167    0.0000 C   0  0  0  0  0  0  0  0  0  0  0  0
   -0.0333    0.6625    0.0000 C   0  0  0  0  0  0  0  0  0  0  0  0
    0.3500    1.3458    0.0000 C   0  0  3  0  0  0  0  0  0  0  0  0
   -0.4125    1.3458    0.0000 C   0  0  0  0  0  0  0  0  0  0  0  0
    0.3500    0.4458    0.0000 C   0  0  0  0  0  0  0  0  0  0  0  0
    0.1875   -0.7000    0.0000 C   0  0  0  0  0  0  0  0  0  0  0  0
    0.6500   -0.6542    0.0000 C   0  0  0  0  0  0  0  0  0  0  0  0
    0.3500    1.8000    0.0000 C   0  0  0  0  0  0  0  0  0  0  0  0
   -0.0333    2.0208    0.0000 C   0  0  0  0  0  0  0  0  0  0  0  0
   -0.4125    1.8000    0.0000 C   0  0  0  0  0  0  0  0  0  0  0  0
    1.1500   -0.0167    0.0000 O   0  0  0  0  0  0  0  0  0  0  0  0
   -0.4333   -0.2000    0.0000 O   0  0  0  0  0  0  0  0  0  0  0  0
   -0.4125    0.4458    0.0000 O   0  0  0  0  0  0  0  0  0  0  0  0
    0.6875    1.0458    0.0000 C   0  0  0  0  0  0  0  0  0  0  0  0
    0.7667    1.4625    0.0000 C   0  0  0  0  0  0  0  0  0  0  0  0
   -0.7958    1.1208    0.0000 C   0  0  0  0  0  0  0  0  0  0  0  0
   -0.0333    2.4625    0.0000 C   0  0  0  0  0  0  0  0  0  0  0  0
    0.8875   -1.0167    0.0000 C   0  0  0  0  0  0  0  0  0  0  0  0
    0.0042   -1.1000    0.0000 C   0  0  0  0  0  0  0  0  0  0  0  0
   -0.7958    2.0208    0.0000 C   0  0  0  0  0  0  0  0  0  0  0  0
   -1.1708    1.3458    0.0000 C   0  0  0  0  0  0  0  0  0  0  0  0
    0.2667   -1.4542    0.0000 C   0  0  0  0  0  0  0  0  0  0  0  0
    0.7042   -1.4167    0.0000 C   0  0  0  0  0  0  0  0  0  0  0  0
   -1.1708    1.8000    0.0000 C   0  0  0  0  0  0  0  0  0  0  0  0
  2  5  1  0  0  0  0
  3  1  1  0  0  0  0
  4  1  1  0  0  0  0
  5  8  1  0  0  0  0
  6  2  1  0  0  0  0
  7  2  1  0  0  0  0
  8  1  1  0  0  0  0
  9  3  1  0  0  0  0
 10  4  1  0  0  0  0
 11  6  1  0  0  0  0
 12 13  1  0  0  0  0
 13  7  2  0  0  0  0
 14  4  2  0  0  0  0
 15  3  2  0  0  0  0
 16  5  2  0  0  0  0
 17  6  1  0  0  0  0
 18  6  1  0  0  0  0
 19  7  1  0  0  0  0
 20 12  1  0  0  0  0
 21 10  2  0  0  0  0
 22  9  2  0  0  0  0
 23 13  1  0  0  0  0
 24 19  2  0  0  0  0
 25 22  1  0  0  0  0
 26 21  1  0  0  0  0
 27 24  1  0  0  0  0
  9 10  1  0  0  0  0
 25 26  2  0  0  0  0
 12 11  2  0  0  0  0
 27 23  2  0  0  0  0
M  END
> <#>
790

> <PLATE>
LAT010

> <ROW>
F

> <COL>
10

> <COORD>
F10

> <LATID>
LAT010F10

> <Supplier>
Chembridge

> <Suplier_CAT#>
5629203

> <Name>
Novel

> <Sec_Name>
191_A04

> <Concentration_(mM)>
2.5

> <IC50_(µM)>
100

> <Yeast_Active?>
-

> <Pubchem_CID>
NULL

$$$$
