
  -ISIS-  08130814242D

 22 23  0  0  0  0  0  0  0  0999 V2000
    0.2792   -4.4792    0.0000 S   0  0  3  0  0  0  0  0  0  0  0  0
    1.7125   -2.8292    0.0000 C   0  0  0  0  0  0  0  0  0  0  0  0
    0.9917   -4.0667    0.0000 N   0  0  3  0  0  0  0  0  0  0  0  0
    0.9917   -3.2417    0.0000 C   0  0  0  0  0  0  0  0  0  0  0  0
    2.4292   -3.2417    0.0000 C   0  0  0  0  0  0  0  0  0  0  0  0
    3.1417   -2.8250    0.0000 N   0  0  0  0  0  0  0  0  0  0  0  0
    0.2792   -5.3042    0.0000 O   0  0  0  0  0  0  0  0  0  0  0  0
    0.9917   -4.8917    0.0000 O   0  0  0  0  0  0  0  0  0  0  0  0
    5.2792   -3.2292    0.0000 N   0  0  0  0  0  0  0  0  0  0  0  0
    2.4292   -4.0667    0.0000 O   0  0  0  0  0  0  0  0  0  0  0  0
   -0.4333   -4.0667    0.0000 C   0  0  0  0  0  0  0  0  0  0  0  0
    3.8542   -3.2417    0.0000 C   0  0  0  0  0  0  0  0  0  0  0  0
    4.5667   -2.8250    0.0000 C   0  0  0  0  0  0  0  0  0  0  0  0
    1.7125   -2.0000    0.0000 C   0  0  0  0  0  0  0  0  0  0  0  0
    1.7125   -4.4792    0.0000 C   0  0  0  0  0  0  0  0  0  0  0  0
    0.2792   -2.8292    0.0000 C   0  0  0  0  0  0  0  0  0  0  0  0
    6.0000   -2.8250    0.0000 C   0  0  0  0  0  0  0  0  0  0  0  0
    4.5750   -2.0042    0.0000 C   0  0  0  0  0  0  0  0  0  0  0  0
    0.9917   -1.5875    0.0000 C   0  0  0  0  0  0  0  0  0  0  0  0
    0.2792   -2.0000    0.0000 C   0  0  0  0  0  0  0  0  0  0  0  0
    6.0000   -2.0042    0.0000 C   0  0  0  0  0  0  0  0  0  0  0  0
    5.2792   -1.5875    0.0000 C   0  0  0  0  0  0  0  0  0  0  0  0
  2  4  2  0  0  0  0
  3  1  1  0  0  0  0
  4  3  1  0  0  0  0
  5  2  1  0  0  0  0
  6  5  1  0  0  0  0
  7  1  2  0  0  0  0
  8  1  2  0  0  0  0
  9 13  1  0  0  0  0
 10  5  2  0  0  0  0
 11  1  1  0  0  0  0
 12  6  1  0  0  0  0
 13 12  1  0  0  0  0
 14  2  1  0  0  0  0
 15  3  1  0  0  0  0
 16  4  1  0  0  0  0
 17  9  2  0  0  0  0
 18 13  2  0  0  0  0
 19 20  1  0  0  0  0
 20 16  2  0  0  0  0
 21 22  2  0  0  0  0
 22 18  1  0  0  0  0
 14 19  2  0  0  0  0
 21 17  1  0  0  0  0
M  END
> <#>
1517

> <PLATE>
LAT019

> <ROW>
E

> <COL>
11

> <COORD>
E11

> <LATID>
LAT019E11

> <Supplier>
Chembridge

> <Suplier_CAT#>
7792299

> <Name>
Novel

> <Concentration_(mM)>
2.5

> <IC50_(µM)>
inactive

> <Yeast_Active?>
-

> <Pubchem_CID>
970060

$$$$
