
  -ISIS-  08130814242D

 20 21  0  0  0  0  0  0  0  0999 V2000
    5.1292   -1.2375    0.0000 C   0  0  0  0  0  0  0  0  0  0  0  0
    4.4167   -1.6542    0.0000 C   0  0  0  0  0  0  0  0  0  0  0  0
    5.8500   -1.6417    0.0000 C   0  0  0  0  0  0  0  0  0  0  0  0
    7.2792   -1.6417    0.0000 C   0  0  0  0  0  0  0  0  0  0  0  0
    7.9917   -1.2250    0.0000 C   0  0  0  0  0  0  0  0  0  0  0  0
    6.5625   -1.2292    0.0000 C   0  0  0  0  0  0  0  0  0  0  0  0
    4.4167   -2.4792    0.0000 C   0  0  0  0  0  0  0  0  0  0  0  0
    5.1292   -0.4125    0.0000 O   0  0  0  0  0  0  0  0  0  0  0  0
    6.5542   -0.4042    0.0000 O   0  0  0  0  0  0  0  0  0  0  0  0
    8.7042   -1.6375    0.0000 C   0  0  0  0  0  0  0  0  0  0  0  0
    5.1375   -2.8917    0.0000 O   0  0  0  0  0  0  0  0  0  0  0  0
    3.7042   -1.2417    0.0000 C   0  0  0  0  0  0  0  0  0  0  0  0
    3.7167   -2.8917    0.0000 C   0  0  0  0  0  0  0  0  0  0  0  0
    8.7042   -2.4625    0.0000 C   0  0  0  0  0  0  0  0  0  0  0  0
    9.4125   -1.2167    0.0000 C   0  0  0  0  0  0  0  0  0  0  0  0
    2.9917   -1.6542    0.0000 C   0  0  0  0  0  0  0  0  0  0  0  0
    2.9917   -2.4792    0.0000 C   0  0  0  0  0  0  0  0  0  0  0  0
   10.1292   -1.6250    0.0000 C   0  0  0  0  0  0  0  0  0  0  0  0
    9.4167   -2.8667    0.0000 C   0  0  0  0  0  0  0  0  0  0  0  0
   10.1375   -2.4542    0.0000 C   0  0  0  0  0  0  0  0  0  0  0  0
  2  1  1  0  0  0  0
  3  1  1  0  0  0  0
  4  6  1  0  0  0  0
  5  4  2  0  0  0  0
  6  3  1  0  0  0  0
  7  2  1  0  0  0  0
  8  1  2  0  0  0  0
  9  6  2  0  0  0  0
 10  5  1  0  0  0  0
 11  7  1  0  0  0  0
 12  2  2  0  0  0  0
 13  7  2  0  0  0  0
 14 10  2  0  0  0  0
 15 10  1  0  0  0  0
 16 12  1  0  0  0  0
 17 16  2  0  0  0  0
 18 15  2  0  0  0  0
 19 14  1  0  0  0  0
 20 18  1  0  0  0  0
 17 13  1  0  0  0  0
 20 19  2  0  0  0  0
M  END
> <#>
1371

> <PLATE>
LAT018

> <ROW>
C

> <COL>
3

> <COORD>
C03

> <LATID>
LAT018C03

> <Supplier>
Chembridge

> <Suplier_CAT#>
7365975

> <Name>
Novel

> <Concentration_(mM)>
2.5

> <IC50_(µM)>
inactive

> <Yeast_Active?>
-

> <Pubchem_CID>
888941

$$$$
