
  -ISIS-  08130814242D

 25 27  0  0  0  0  0  0  0  0999 V2000
    2.7667   -1.9875    0.0000 C   0  0  0  0  0  0  0  0  0  0  0  0
    2.0542   -1.7542    0.0000 N   0  0  3  0  0  0  0  0  0  0  0  0
    2.0542   -1.0042    0.0000 C   0  0  0  0  0  0  0  0  0  0  0  0
    2.7667   -0.7792    0.0000 N   0  0  0  0  0  0  0  0  0  0  0  0
    3.2167   -1.3792    0.0000 C   0  0  0  0  0  0  0  0  0  0  0  0
    3.0042   -2.7000    0.0000 C   0  0  0  0  0  0  0  0  0  0  0  0
    1.4042   -2.1292    0.0000 C   0  0  0  0  0  0  0  0  0  0  0  0
    1.4042   -0.6292    0.0000 C   0  0  0  0  0  0  0  0  0  0  0  0
    0.7542   -1.7542    0.0000 C   0  0  0  0  0  0  0  0  0  0  0  0
    0.7542   -1.0042    0.0000 C   0  0  0  0  0  0  0  0  0  0  0  0
    3.9667   -3.5667    0.0000 N   0  0  0  0  0  0  0  0  0  0  0  0
    3.7375   -2.8542    0.0000 N   0  0  0  0  0  0  0  0  0  0  0  0
    2.5000   -3.2667    0.0000 O   0  0  0  0  0  0  0  0  0  0  0  0
    4.7000   -3.7292    0.0000 C   0  0  0  0  0  0  0  0  0  0  0  0
    3.9667   -1.3792    0.0000 C   0  0  0  0  0  0  0  0  0  0  0  0
    5.2042   -3.1667    0.0000 C   0  0  0  0  0  0  0  0  0  0  0  0
    6.2042   -2.0542    0.0000 C   0  0  0  0  0  0  0  0  0  0  0  0
    5.9375   -3.3292    0.0000 C   0  0  0  0  0  0  0  0  0  0  0  0
    4.9667   -2.4542    0.0000 C   0  0  0  0  0  0  0  0  0  0  0  0
    5.4792   -1.9000    0.0000 C   0  0  0  0  0  0  0  0  0  0  0  0
    6.4375   -2.7667    0.0000 C   0  0  0  0  0  0  0  0  0  0  0  0
    6.7042   -1.5000    0.0000 O   0  0  0  0  0  0  0  0  0  0  0  0
    0.1042   -0.6292    0.0000 C   0  0  0  0  0  0  0  0  0  0  0  0
    6.4792   -0.7875    0.0000 C   0  0  0  0  0  0  0  0  0  0  0  0
    6.9792   -0.2292    0.0000 C   0  0  0  0  0  0  0  0  0  0  0  0
  2  1  1  0  0  0  0
  3  2  1  0  0  0  0
  4  5  1  0  0  0  0
  5  1  2  0  0  0  0
  6  1  1  0  0  0  0
  7  2  1  0  0  0  0
  8  3  1  0  0  0  0
  9  7  2  0  0  0  0
 10  9  1  0  0  0  0
 11 12  1  0  0  0  0
 12  6  1  0  0  0  0
 13  6  2  0  0  0  0
 14 11  2  0  0  0  0
 15  5  1  0  0  0  0
 16 14  1  0  0  0  0
 17 20  2  0  0  0  0
 18 16  1  0  0  0  0
 19 16  2  0  0  0  0
 20 19  1  0  0  0  0
 21 18  2  0  0  0  0
 22 17  1  0  0  0  0
 23 10  1  0  0  0  0
 24 22  1  0  0  0  0
 25 24  1  0  0  0  0
  3  4  2  0  0  0  0
 10  8  2  0  0  0  0
 17 21  1  0  0  0  0
M  END
> <#>
1790

> <PLATE>
LAT023

> <ROW>
F

> <COL>
5

> <COORD>
F05

> <LATID>
LAT023F05

> <Supplier>
Chembridge

> <Suplier_CAT#>
5563076

> <Name>
Novel

> <Sec_Name>
169_C05

> <Concentration_(mM)>
2.5

> <IC50_(µM)>
24

> <Yeast_Active?>
-

> <Pubchem_CID>
804539

$$$$
