
  -ISIS-  08130814242D

 24 26  0  0  0  0  0  0  0  0999 V2000
    0.5277   -0.3791    0.0000 C   0  0  0  0  0  0  0  0  0  0  0  0
    0.5266   -1.2065    0.0000 C   0  0  0  0  0  0  0  0  0  0  0  0
    1.2414   -1.6194    0.0000 C   0  0  0  0  0  0  0  0  0  0  0  0
    1.2396    0.0336    0.0000 C   0  0  0  0  0  0  0  0  0  0  0  0
    1.9550   -0.3755    0.0000 C   0  0  0  0  0  0  0  0  0  0  0  0
    1.9538   -1.2086    0.0000 C   0  0  0  0  0  0  0  0  0  0  0  0
    2.6707   -1.6238    0.0000 O   0  0  0  0  0  0  0  0  0  0  0  0
    3.3933   -1.2106    0.0000 C   0  0  0  0  0  0  0  0  0  0  0  0
    3.3945   -0.3776    0.0000 C   0  0  0  0  0  0  0  0  0  0  0  0
    2.6731    0.0423    0.0000 C   0  0  0  0  0  0  0  0  0  0  0  0
    1.2411   -2.4444    0.0000 C   0  0  0  0  0  0  0  0  0  0  0  0
    4.1066   -1.6252    0.0000 N   0  0  3  0  0  0  0  0  0  0  0  0
    4.0996   -2.4555    0.0000 C   0  0  0  0  0  0  0  0  0  0  0  0
    4.8088   -2.8699    0.0000 C   0  0  0  0  0  0  0  0  0  0  0  0
    5.5268   -2.4629    0.0000 O   0  0  0  0  0  0  0  0  0  0  0  0
    5.5312   -1.6370    0.0000 C   0  0  0  0  0  0  0  0  0  0  0  0
    4.8174   -1.2180    0.0000 C   0  0  0  0  0  0  0  0  0  0  0  0
    0.5268   -2.8539    0.0000 C   0  0  0  0  0  0  0  0  0  0  0  0
    0.5261   -3.6781    0.0000 C   0  0  0  0  0  0  0  0  0  0  0  0
    1.2410   -4.0917    0.0000 C   0  0  0  0  0  0  0  0  0  0  0  0
    1.9580   -3.6750    0.0000 C   0  0  0  0  0  0  0  0  0  0  0  0
    1.9551   -2.8522    0.0000 C   0  0  0  0  0  0  0  0  0  0  0  0
    2.6731    0.8673    0.0000 O   0  0  0  0  0  0  0  0  0  0  0  0
    3.5833   -5.2500    0.0000 Cl  0  0  0  0  0  0  0  0  0  0  0  0
  3 11  1  0  0  0  0
  5  6  1  0  0  0  0
  8 12  1  0  0  0  0
 12 13  1  0  0  0  0
  1  2  2  0  0  0  0
  2  3  1  0  0  0  0
  3  6  2  0  0  0  0
 12 17  1  0  0  0  0
 13 14  1  0  0  0  0
 14 15  1  0  0  0  0
 15 16  1  0  0  0  0
 16 17  1  0  0  0  0
  5  4  2  0  0  0  0
 11 18  2  0  0  0  0
  5 10  1  0  0  0  0
 18 19  1  0  0  0  0
  6  7  1  0  0  0  0
 19 20  2  0  0  0  0
  7  8  1  0  0  0  0
 20 21  1  0  0  0  0
  8  9  2  0  0  0  0
 21 22  2  0  0  0  0
 22 11  1  0  0  0  0
  9 10  1  0  0  0  0
 10 23  2  0  0  0  0
  4  1  1  0  0  0  0
M  END
> <#>
246

> <PLATE>
LAT004

> <ROW>
F

> <COL>
2

> <COORD>
F02

> <LATID>
LAT004F02

> <Supplier>
Sigma

> <Suplier_CAT#>
L 9908

> <Name>
Ly-294,002 Hydrochloride

> <Concentration_(mM)>
2.5

> <IC50_(µM)>
18

> <Yeast_Active?>
-

> <Pubchem_CID>
3973

> <Description>
Specific phosphatidylinositol 3-kinase (PI3K) inhibitor.

$$$$
