
  -ISIS-  08130814242D

 24 27  0  0  0  0  0  0  0  0999 V2000
    0.5167    1.8708    0.0000 C   0  0  0  0  0  0  0  0  0  0  0  0
   -0.3958    3.1333    0.0000 C   0  0  0  0  0  0  0  0  0  0  0  0
   -0.3958    2.1708    0.0000 N   0  0  3  0  0  0  0  0  0  0  0  0
    0.5167    3.4000    0.0000 N   0  0  0  0  0  0  0  0  0  0  0  0
    1.0542    2.6500    0.0000 C   0  0  0  0  0  0  0  0  0  0  0  0
    0.8167    0.9458    0.0000 C   0  0  0  0  0  0  0  0  0  0  0  0
   -1.3125    3.4000    0.0000 S   0  0  0  0  0  0  0  0  0  0  0  0
   -1.3125    1.8708    0.0000 C   0  0  0  0  0  0  0  0  0  0  0  0
    2.0500   -0.1542    0.0000 N   0  0  0  0  0  0  0  0  0  0  0  0
   -1.8500    2.6500    0.0000 C   0  0  0  0  0  0  0  0  0  0  0  0
    1.7542    0.7333    0.0000 N   0  0  0  0  0  0  0  0  0  0  0  0
    4.1792   -1.4792    0.0000 C   0  0  0  0  0  0  0  0  0  0  0  0
    0.1542    0.2500    0.0000 O   0  0  0  0  0  0  0  0  0  0  0  0
    3.2542   -1.2667    0.0000 C   0  0  0  0  0  0  0  0  0  0  0  0
    2.9792   -0.3667    0.0000 C   0  0  0  0  0  0  0  0  0  0  0  0
    4.4542   -2.4042    0.0000 C   0  0  0  0  0  0  0  0  0  0  0  0
    2.0167    2.6833    0.0000 C   0  0  0  0  0  0  0  0  0  0  0  0
    2.8792   -2.8542    0.0000 C   0  0  0  0  0  0  0  0  0  0  0  0
    2.6000   -1.9542    0.0000 C   0  0  0  0  0  0  0  0  0  0  0  0
    4.8167   -0.8000    0.0000 C   0  0  0  0  0  0  0  0  0  0  0  0
    3.8000   -3.1000    0.0000 C   0  0  0  0  0  0  0  0  0  0  0  0
    5.3667   -2.6042    0.0000 C   0  0  0  0  0  0  0  0  0  0  0  0
    5.7500   -1.0167    0.0000 C   0  0  0  0  0  0  0  0  0  0  0  0
    6.0167   -1.9292    0.0000 C   0  0  0  0  0  0  0  0  0  0  0  0
  2  3  1  0  0  0  0
  3  1  1  0  0  0  0
  4  5  1  0  0  0  0
  5  1  2  0  0  0  0
  6  1  1  0  0  0  0
  7  2  1  0  0  0  0
  8  3  1  0  0  0  0
  9 11  1  0  0  0  0
 10  8  2  0  0  0  0
 11  6  1  0  0  0  0
 12 14  1  0  0  0  0
 13  6  2  0  0  0  0
 14 15  1  0  0  0  0
 15  9  2  0  0  0  0
 16 12  2  0  0  0  0
 17  5  1  0  0  0  0
 18 19  1  0  0  0  0
 19 14  2  0  0  0  0
 20 12  1  0  0  0  0
 21 18  2  0  0  0  0
 22 16  1  0  0  0  0
 23 20  2  0  0  0  0
 24 23  1  0  0  0  0
  2  4  2  0  0  0  0
  7 10  1  0  0  0  0
 16 21  1  0  0  0  0
 22 24  2  0  0  0  0
M  END
> <#>
865

> <PLATE>
LAT011

> <ROW>
A

> <COL>
10

> <COORD>
A10

> <LATID>
LAT011A10

> <Supplier>
Chembridge

> <Suplier_CAT#>
5665580

> <Name>
Novel

> <Sec_Name>
209_A10

> <Concentration_(mM)>
2.5

> <IC50_(µM)>
18

> <Yeast_Active?>
-

> <Pubchem_CID>
NULL

$$$$
