
  -ISIS-  08130814242D

 20 21  0  0  0  0  0  0  0  0999 V2000
    3.2667   -1.5542    0.0000 C   0  0  0  0  0  0  0  0  0  0  0  0
    4.5667   -1.5542    0.0000 N   0  0  0  0  0  0  0  0  0  0  0  0
    3.9167   -1.9375    0.0000 N   0  0  0  0  0  0  0  0  0  0  0  0
    3.2667   -0.8042    0.0000 O   0  0  0  0  0  0  0  0  0  0  0  0
    6.5167   -0.4375    0.0000 N   0  0  0  0  0  0  0  0  0  0  0  0
    5.2167   -1.9375    0.0000 C   0  0  0  0  0  0  0  0  0  0  0  0
    5.8667   -1.5667    0.0000 C   0  0  0  0  0  0  0  0  0  0  0  0
    2.6167   -1.9375    0.0000 C   0  0  0  0  0  0  0  0  0  0  0  0
    1.9667   -1.5542    0.0000 O   0  0  0  0  0  0  0  0  0  0  0  0
    1.3167   -1.9375    0.0000 C   0  0  0  0  0  0  0  0  0  0  0  0
    0.6667   -1.5542    0.0000 C   0  0  0  0  0  0  0  0  0  0  0  0
    0.0167   -1.9375    0.0000 C   0  0  0  0  0  0  0  0  0  0  0  0
    5.8667   -0.8167    0.0000 C   0  0  0  0  0  0  0  0  0  0  0  0
    0.6667   -3.0667    0.0000 C   0  0  0  0  0  0  0  0  0  0  0  0
    7.1667   -0.8167    0.0000 C   0  0  0  0  0  0  0  0  0  0  0  0
    6.5167   -1.9375    0.0000 C   0  0  0  0  0  0  0  0  0  0  0  0
    1.3167   -2.6875    0.0000 C   0  0  0  0  0  0  0  0  0  0  0  0
    0.0167   -2.6875    0.0000 C   0  0  0  0  0  0  0  0  0  0  0  0
   -0.6208   -1.5542    0.0000 C   0  0  0  0  0  0  0  0  0  0  0  0
    7.1667   -1.5667    0.0000 C   0  0  0  0  0  0  0  0  0  0  0  0
  2  3  1  0  0  0  0
  3  1  1  0  0  0  0
  4  1  2  0  0  0  0
  5 13  1  0  0  0  0
  6  2  2  0  0  0  0
  7  6  1  0  0  0  0
  8  1  1  0  0  0  0
  9  8  1  0  0  0  0
 10  9  1  0  0  0  0
 11 10  1  0  0  0  0
 12 11  2  0  0  0  0
 13  7  2  0  0  0  0
 14 17  1  0  0  0  0
 15 20  1  0  0  0  0
 16  7  1  0  0  0  0
 17 10  2  0  0  0  0
 18 14  2  0  0  0  0
 19 12  1  0  0  0  0
 20 16  2  0  0  0  0
 12 18  1  0  0  0  0
 15  5  2  0  0  0  0
M  END
> <#>
1964

> <PLATE>
LAT025

> <ROW>
D

> <COL>
7

> <COORD>
D07

> <LATID>
LAT025D07

> <Supplier>
Chembridge

> <Suplier_CAT#>
5474556

> <Concentration_(mM)>
2.5

> <IC50_(µM)>
33

> <Yeast_Active?>
-

> <Pubchem_CID>
867438

$$$$
