
  -ISIS-  08130814242D

 17 19  0  0  0  0  0  0  0  0999 V2000
   -1.2500    1.0000    0.0000 C   0  0  0  0  0  0  0  0  0  0  0  0
   -1.8500    1.3458    0.0000 C   0  0  0  0  0  0  0  0  0  0  0  0
   -1.2500    0.3000    0.0000 C   0  0  0  0  0  0  0  0  0  0  0  0
   -1.8500   -0.0292    0.0000 S   0  0  0  0  0  0  0  0  0  0  0  0
   -2.4333    1.0000    0.0000 C   0  0  0  0  0  0  0  0  0  0  0  0
   -2.4333    0.3000    0.0000 C   0  0  0  0  0  0  0  0  0  0  0  0
   -0.6500    1.3458    0.0000 C   0  0  0  0  0  0  0  0  0  0  0  0
   -0.6500   -0.0292    0.0000 C   0  0  0  0  0  0  0  0  0  0  0  0
   -0.0500    1.0000    0.0000 C   0  0  0  0  0  0  0  0  0  0  0  0
   -0.0500    0.3000    0.0000 C   0  0  0  0  0  0  0  0  0  0  0  0
   -1.8500    2.0208    0.0000 O   0  0  0  0  0  0  0  0  0  0  0  0
    0.5500    1.3458    0.0000 O   0  0  0  0  0  0  0  0  0  0  0  0
   -3.0333    1.3458    0.0000 C   0  0  0  0  0  0  0  0  0  0  0  0
   -3.0333   -0.0292    0.0000 C   0  0  0  0  0  0  0  0  0  0  0  0
    0.5500   -0.0542    0.0000 C   0  0  0  0  0  0  0  0  0  0  0  0
   -3.6333    1.0000    0.0000 C   0  0  0  0  0  0  0  0  0  0  0  0
   -3.6333    0.3000    0.0000 C   0  0  0  0  0  0  0  0  0  0  0  0
  2  1  1  0  0  0  0
  3  1  2  0  0  0  0
  4  3  1  0  0  0  0
  5  2  1  0  0  0  0
  6  4  1  0  0  0  0
  7  1  1  0  0  0  0
  8  3  1  0  0  0  0
  9  7  2  0  0  0  0
 10  9  1  0  0  0  0
 11  2  2  0  0  0  0
 12  9  1  0  0  0  0
 13  5  1  0  0  0  0
 14  6  1  0  0  0  0
 15 10  1  0  0  0  0
 16 13  2  0  0  0  0
 17 14  2  0  0  0  0
 10  8  2  0  0  0  0
  5  6  2  0  0  0  0
 16 17  1  0  0  0  0
M  END
> <#>
1132

> <PLATE>
LAT015

> <ROW>
D

> <COL>
3

> <COORD>
D03

> <LATID>
LAT015D03

> <Supplier>
Chembridge

> <Suplier_CAT#>
5233099

> <Name>
Novel

> <Concentration_(mM)>
2.5

> <IC50_(µM)>
inactive

> <Yeast_Active?>
-

> <Pubchem_CID>
2835755

$$$$
