
  -ISIS-  08130814242D

 25 25  0  0  0  0  0  0  0  0999 V2000
    8.4106   -1.7342    0.0000 C   0  0  0  0  0  0  0  0  0  0  0  0
    7.7856   -0.6517    0.0000 C   0  0  0  0  0  0  0  0  0  0  0  0
    6.5356   -0.6517    0.0000 N   0  0  0  0  0  0  0  0  0  0  0  0
    5.9106    0.4308    0.0000 N   0  0  0  0  0  0  0  0  0  0  0  0
    4.6606    0.4308    0.0000 C   0  0  0  0  0  0  0  0  0  0  0  0
    4.0356    1.5134    0.0000 O   0  0  0  0  0  0  0  0  0  0  0  0
    4.0356   -0.6517    0.0000 N   0  0  0  0  0  0  0  0  0  0  0  0
    2.7856   -0.6517    0.0000 C   0  0  0  0  0  0  0  0  0  0  0  0
    2.1606   -1.7342    0.0000 C   0  0  0  0  0  0  0  0  0  0  0  0
    0.9106   -1.7342    0.0000 C   0  0  0  0  0  0  0  0  0  0  0  0
    0.2856   -0.6517    0.0000 C   0  0  0  0  0  0  0  0  0  0  0  0
    0.9106    0.4308    0.0000 C   0  0  0  0  0  0  0  0  0  0  0  0
    2.1606    0.4308    0.0000 C   0  0  0  0  0  0  0  0  0  0  0  0
    0.2856    1.5134    0.0000 F   0  0  0  0  0  0  0  0  0  0  0  0
    0.2856   -2.8167    0.0000 F   0  0  0  0  0  0  0  0  0  0  0  0
    8.4106    0.4308    0.0000 C   0  0  0  0  0  0  0  0  0  0  0  0
    9.6606    0.4308    0.0000 C   0  0  0  0  0  0  0  0  0  0  0  0
   10.2856    1.5134    0.0000 C   0  0  0  0  0  0  0  0  0  0  0  0
    9.6606    2.5959    0.0000 C   0  0  0  0  0  0  0  0  0  0  0  0
    8.4106    2.5959    0.0000 C   0  0  0  0  0  0  0  0  0  0  0  0
    7.7856    1.5134    0.0000 N   0  0  0  0  0  0  0  0  0  0  0  0
   10.2856   -0.6517    0.0000 C   0  0  0  0  0  0  0  0  0  0  0  0
   11.5356   -0.6517    0.0000 O   0  0  0  0  0  0  0  0  0  0  0  0
    9.6606   -1.7342    0.0000 O   0  5  0  0  0  0  0  0  0  0  0  0
    9.6555   -2.4875    0.0000 Na  0  3  0  0  0  0  0  0  0  0  0  0
  1  2  1  0  0  0  0
  2  3  2  0  0  0  0
  3  4  1  0  0  0  0
  4  5  1  0  0  0  0
  5  6  2  0  0  0  0
  5  7  1  0  0  0  0
  7  8  1  0  0  0  0
  8  9  2  0  0  0  0
  9 10  1  0  0  0  0
 10 11  2  0  0  0  0
 11 12  1  0  0  0  0
 12 13  2  0  0  0  0
  8 13  1  0  0  0  0
 12 14  1  0  0  0  0
 10 15  1  0  0  0  0
  2 16  1  0  0  0  0
 16 17  2  0  0  0  0
 17 18  1  0  0  0  0
 18 19  2  0  0  0  0
 19 20  1  0  0  0  0
 20 21  2  0  0  0  0
 16 21  1  0  0  0  0
 17 22  1  0  0  0  0
 22 23  2  0  0  0  0
 22 24  1  0  0  0  0
M  CHG  2  24  -1  25   1
M  END
> <#>
1932

> <PLATE>
LAT025

> <ROW>
D

> <COL>
3

> <COORD>
D03

> <LATID>
LAT025D03

> <Supplier>
Riedel-de Haen

> <Suplier_CAT#>
37916

> <Name>
diflufenzopyr sodium salt

> <Concentration_(mM)>
2.5

> <IC50_(µM)>
40

> <Yeast_Active?>
-

> <Pubchem_CID>
5486793

> <LATCA_Notes>
Auxin Polar Transport Inhibitor

$$$$
