
  -ISIS-  08130814242D

 27 30  0  0  0  0  0  0  0  0999 V2000
   -2.5833   -1.3167    0.0000 N   0  0  0  0  0  0  0  0  0  0  0  0
   -2.2833   -0.8042    0.0000 C   0  0  0  0  0  0  0  0  0  0  0  0
   -2.2833   -1.8292    0.0000 C   0  0  0  0  0  0  0  0  0  0  0  0
   -1.6833   -0.8042    0.0000 N   0  0  0  0  0  0  0  0  0  0  0  0
   -1.6833   -1.8292    0.0000 N   0  0  0  0  0  0  0  0  0  0  0  0
   -1.3833   -1.3167    0.0000 C   0  0  0  0  0  0  0  0  0  0  0  0
   -2.5833   -0.3000    0.0000 N   0  0  3  0  0  0  0  0  0  0  0  0
   -2.5833   -2.3375    0.0000 N   0  0  3  0  0  0  0  0  0  0  0  0
   -0.4833   -0.8375    0.0000 N   0  0  0  0  0  0  0  0  0  0  0  0
   -0.7833   -1.3500    0.0000 N   0  0  0  0  0  0  0  0  0  0  0  0
    1.3375    0.1208    0.0000 N   0  0  0  0  0  0  0  0  0  0  0  0
   -3.1833    0.7208    0.0000 O   0  0  0  0  0  0  0  0  0  0  0  0
    0.1375   -0.8667    0.0000 C   0  0  0  0  0  0  0  0  0  0  0  0
   -3.1833   -3.3875    0.0000 O   0  0  0  0  0  0  0  0  0  0  0  0
    0.4375   -0.3542    0.0000 C   0  0  0  0  0  0  0  0  0  0  0  0
   -2.2833    0.2125    0.0000 C   0  0  0  0  0  0  0  0  0  0  0  0
   -2.2833   -2.8792    0.0000 C   0  0  0  0  0  0  0  0  0  0  0  0
   -3.1833   -0.3000    0.0000 C   0  0  0  0  0  0  0  0  0  0  0  0
   -3.1833   -2.3375    0.0000 C   0  0  0  0  0  0  0  0  0  0  0  0
    1.0375   -0.3875    0.0000 C   0  0  0  0  0  0  0  0  0  0  0  0
    1.0792    0.6333    0.0000 C   0  0  0  0  0  0  0  0  0  0  0  0
   -3.4833    0.2125    0.0000 C   0  0  0  0  0  0  0  0  0  0  0  0
   -3.4833   -2.8500    0.0000 C   0  0  0  0  0  0  0  0  0  0  0  0
   -2.5833    0.7208    0.0000 C   0  0  0  0  0  0  0  0  0  0  0  0
   -2.5833   -3.3875    0.0000 C   0  0  0  0  0  0  0  0  0  0  0  0
    0.1542    0.1500    0.0000 C   0  0  0  0  0  0  0  0  0  0  0  0
    0.4792    0.6625    0.0000 C   0  0  0  0  0  0  0  0  0  0  0  0
  2  1  2  0  0  0  0
  3  1  1  0  0  0  0
  4  2  1  0  0  0  0
  5  3  2  0  0  0  0
  6  5  1  0  0  0  0
  7  2  1  0  0  0  0
  8  3  1  0  0  0  0
  9 10  1  0  0  0  0
 10  6  1  0  0  0  0
 11 20  2  0  0  0  0
 12 22  1  0  0  0  0
 13  9  2  0  0  0  0
 14 23  1  0  0  0  0
 15 13  1  0  0  0  0
 16  7  1  0  0  0  0
 17  8  1  0  0  0  0
 18  7  1  0  0  0  0
 19  8  1  0  0  0  0
 20 15  1  0  0  0  0
 21 27  2  0  0  0  0
 22 18  1  0  0  0  0
 23 19  1  0  0  0  0
 24 16  1  0  0  0  0
 25 17  1  0  0  0  0
 26 15  2  0  0  0  0
 27 26  1  0  0  0  0
  4  6  2  0  0  0  0
 14 25  1  0  0  0  0
 24 12  1  0  0  0  0
 21 11  1  0  0  0  0
M  END
> <#>
1621

> <PLATE>
LAT021

> <ROW>
E

> <COL>
4

> <COORD>
E04

> <LATID>
LAT021E04

> <Supplier>
Chembridge

> <Suplier_CAT#>
5377751

> <Name>
Novel

> <Concentration_(mM)>
2.5

> <IC50_(µM)>
>100

> <Yeast_Active?>
-

> <Pubchem_CID>
2844281

$$$$
