
  -ISIS-  08130814242D

 34 37  0  0  0  0  0  0  0  0999 V2000
   -2.7171    0.1954    0.0000 C   0  0  0  0  0  0  0  0  0  0  0  0
   -1.6346    0.8204    0.0000 C   0  0  3  0  0  0  0  0  0  0  0  0
   -1.6346    2.0718    0.0000 C   0  0  0  0  0  0  0  0  0  0  0  0
   -0.5532    0.1961    0.0000 C   0  0  3  0  0  0  0  0  0  0  0  0
    0.5322    0.8228    0.0000 C   0  0  0  0  0  0  0  0  0  0  0  0
   -0.5532   -1.0505    0.0000 C   0  0  3  0  0  0  0  0  0  0  0  0
    0.5331   -1.6777    0.0000 C   0  0  3  0  0  0  0  0  0  0  0  0
    1.6199   -1.0503    0.0000 C   0  0  3  0  0  0  0  0  0  0  0  0
    1.6199    0.2049    0.0000 C   0  0  0  0  0  0  0  0  0  0  0  0
    2.6979   -1.6727    0.0000 C   0  0  3  0  0  0  0  0  0  0  0  0
    2.8347   -2.9102    0.0000 C   0  0  0  0  0  0  0  0  0  0  0  0
    4.0567   -3.1663    0.0000 C   0  0  0  0  0  0  0  0  0  0  0  0
    4.6817   -2.0838    0.0000 C   0  0  3  0  0  0  0  0  0  0  0  0
    3.8416   -1.1562    0.0000 C   0  0  3  0  0  0  0  0  0  0  0  0
    4.2249    0.0336    0.0000 C   0  0  0  0  0  0  0  0  0  0  0  0
    5.4470    0.2966    0.0000 C   0  0  0  0  0  0  0  0  0  0  0  0
    6.2857   -0.6303    0.0000 C   0  0  3  0  0  0  0  0  0  0  0  0
    5.9024   -1.8201    0.0000 C   0  0  3  0  0  0  0  0  0  0  0  0
    6.5936   -2.8616    0.0000 C   0  0  0  0  0  0  0  0  0  0  0  0
    7.8277   -2.9596    0.0000 O   0  0  0  0  0  0  0  0  0  0  0  0
    8.7116   -2.0757    0.0000 C   0  0  0  0  0  0  0  0  0  0  0  0
    9.8902   -2.4482    0.0000 O   0  0  0  0  0  0  0  0  0  0  0  0
    8.5335   -0.8199    0.0000 C   0  0  3  0  0  0  0  0  0  0  0  0
    7.4510   -0.1949    0.0000 C   0  0  3  0  0  0  0  0  0  0  0  0
    7.4510    1.0618    0.0000 C   0  0  0  0  0  0  0  0  0  0  0  0
    8.5483    1.6953    0.0000 C   0  0  3  0  0  0  0  0  0  0  0  0
    9.6499    1.0593    0.0000 C   0  0  3  0  0  0  0  0  0  0  0  0
    9.6499   -0.2151    0.0000 C   0  0  0  0  0  0  0  0  0  0  0  0
   10.7111    1.6720    0.0000 O   0  0  0  0  0  0  0  0  0  0  0  0
    8.5483    2.9231    0.0000 O   0  0  0  0  0  0  0  0  0  0  0  0
    6.4309    0.5288    0.0000 C   0  0  0  0  0  0  0  0  0  0  0  0
    2.9106   -0.3221    0.0000 C   0  0  0  0  0  0  0  0  0  0  0  0
    0.5331   -2.9228    0.0000 O   0  0  0  0  0  0  0  0  0  0  0  0
   -1.6320   -1.6733    0.0000 O   0  0  0  0  0  0  0  0  0  0  0  0
  1  2  1  0  0  0  0
  2  3  1  0  0  0  0
  2  4  1  0  0  0  0
  4  5  1  0  0  0  0
  4  6  1  0  0  0  0
  6  7  1  0  0  0  0
  7  8  1  0  0  0  0
  8  9  1  0  0  0  0
  8 10  1  0  0  0  0
 10 11  1  0  0  0  0
 11 12  1  0  0  0  0
 12 13  1  0  0  0  0
 13 14  1  0  0  0  0
 10 14  1  0  0  0  0
 14 15  1  0  0  0  0
 15 16  1  0  0  0  0
 16 17  1  0  0  0  0
 17 18  1  0  0  0  0
 13 18  1  0  0  0  0
 18 19  1  0  0  0  0
 19 20  1  0  0  0  0
 20 21  1  0  0  0  0
 21 22  2  0  0  0  0
 21 23  1  0  0  0  0
 23 24  1  0  0  0  0
 17 24  1  0  0  0  0
 24 25  1  0  0  0  0
 25 26  1  0  0  0  0
 26 27  1  0  0  0  0
 27 28  1  0  0  0  0
 23 28  1  0  0  0  0
 27 29  1  0  0  0  0
 26 30  1  0  0  0  0
 24 31  1  0  0  0  0
 14 32  1  0  0  0  0
  7 33  1  0  0  0  0
  6 34  1  0  0  0  0
M  END
> <#>
543

> <PLATE>
LAT007

> <ROW>
G

> <COL>
9

> <COORD>
G09

> <LATID>
LAT007G09

> <Supplier>
Sigma

> <Suplier_CAT#>
E1641

> <Name>
Epibrassinolide

> <Concentration_(mM)>
0.02

> <IC50_(µM)>
0.08

> <Yeast_Active?>
-

> <Pubchem_CID>
NULL

$$$$
