
  -ISIS-  08130814242D

 20 22  0  0  0  0  0  0  0  0999 V2000
    1.5292   -3.1125    0.0000 N   0  0  3  0  0  0  0  0  0  0  0  0
    0.8500   -2.7167    0.0000 C   0  0  3  0  0  0  0  0  0  0  0  0
    2.2417   -2.7000    0.0000 C   0  0  0  0  0  0  0  0  0  0  0  0
    0.8542   -1.8917    0.0000 C   0  0  0  0  0  0  0  0  0  0  0  0
    0.1375   -0.6625    0.0000 N   0  0  0  0  0  0  0  0  0  0  0  0
    2.9625   -3.1125    0.0000 C   0  0  0  0  0  0  0  0  0  0  0  0
    4.3125   -3.8917    0.0000 C   0  0  0  0  0  0  0  0  0  0  0  0
    1.5292   -3.9042    0.0000 C   0  0  0  0  0  0  0  0  0  0  0  0
    0.1417   -1.4875    0.0000 C   0  0  0  0  0  0  0  0  0  0  0  0
    4.9792   -4.2792    0.0000 Br  0  0  0  0  0  0  0  0  0  0  0  0
    2.9625   -3.8917    0.0000 C   0  0  0  0  0  0  0  0  0  0  0  0
    3.6292   -2.7167    0.0000 C   0  0  0  0  0  0  0  0  0  0  0  0
    4.3125   -3.1125    0.0000 C   0  0  0  0  0  0  0  0  0  0  0  0
    3.6292   -4.2792    0.0000 C   0  0  0  0  0  0  0  0  0  0  0  0
    0.1667   -3.1125    0.0000 C   0  0  0  0  0  0  0  0  0  0  0  0
    1.5667   -1.4792    0.0000 C   0  0  0  0  0  0  0  0  0  0  0  0
    0.8542   -0.2417    0.0000 C   0  0  0  0  0  0  0  0  0  0  0  0
    0.8500   -4.3042    0.0000 C   0  0  0  0  0  0  0  0  0  0  0  0
    1.5667   -0.6542    0.0000 C   0  0  0  0  0  0  0  0  0  0  0  0
    0.1667   -3.9042    0.0000 C   0  0  0  0  0  0  0  0  0  0  0  0
  2  1  1  0  0  0  0
  3  1  1  0  0  0  0
  4  2  1  0  0  0  0
  5  9  2  0  0  0  0
  6  3  1  0  0  0  0
  7 13  1  0  0  0  0
  8  1  1  0  0  0  0
  9  4  1  0  0  0  0
 10  7  1  0  0  0  0
 11  6  2  0  0  0  0
 12  6  1  0  0  0  0
 13 12  2  0  0  0  0
 14 11  1  0  0  0  0
 15  2  1  0  0  0  0
 16  4  2  0  0  0  0
 17 19  2  0  0  0  0
 18  8  1  0  0  0  0
 19 16  1  0  0  0  0
 20 18  1  0  0  0  0
 15 20  1  0  0  0  0
  7 14  2  0  0  0  0
  5 17  1  0  0  0  0
M  END
> <#>
1929

> <PLATE>
LAT025

> <ROW>
A

> <COL>
3

> <COORD>
A03

> <LATID>
LAT025A03

> <Supplier>
Chembridge

> <Suplier_CAT#>
5639992

> <Name>
Novel

> <Sec_Name>
195_B07

> <Concentration_(mM)>
2.5

> <IC50_(µM)>
5

> <Yeast_Active?>
-

> <Pubchem_CID>
NULL

$$$$
