
  -ISIS-  08130814242D

 23 24  0  0  0  0  0  0  0  0999 V2000
    2.2250    0.3708    0.0000 C   0  0  0  0  0  0  0  0  0  0  0  0
    0.7917    2.0000    0.0000 N   0  3  0  0  0  0  0  0  0  0  0  0
    1.5042    1.5958    0.0000 C   0  0  0  0  0  0  0  0  0  0  0  0
    3.6542    0.3625    0.0000 N   0  3  0  0  0  0  0  0  0  0  0  0
    1.5125    0.7708    0.0000 C   0  0  0  0  0  0  0  0  0  0  0  0
    2.9417    0.7833    0.0000 C   0  0  0  0  0  0  0  0  0  0  0  0
    2.9375    1.6000    0.0000 C   0  0  0  0  0  0  0  0  0  0  0  0
    2.2167    2.0208    0.0000 C   0  0  0  0  0  0  0  0  0  0  0  0
    2.2292   -0.4542    0.0000 C   0  0  3  0  0  0  0  0  0  0  0  0
    0.8000   -2.1167    0.0000 N   0  0  0  0  0  0  0  0  0  0  0  0
    0.7792    2.8333    0.0000 O   0  5  0  0  0  0  0  0  0  0  0  0
    3.6542   -0.4625    0.0000 O   0  5  0  0  0  0  0  0  0  0  0  0
    0.0792    1.5833    0.0000 O   0  0  0  0  0  0  0  0  0  0  0  0
    4.3667    0.7750    0.0000 O   0  0  0  0  0  0  0  0  0  0  0  0
    1.5167   -0.8750    0.0000 C   0  0  0  0  0  0  0  0  0  0  0  0
    1.5167   -1.7042    0.0000 C   0  0  0  0  0  0  0  0  0  0  0  0
    0.8000   -0.4625    0.0000 C   0  0  0  0  0  0  0  0  0  0  0  0
    0.0875   -1.7042    0.0000 C   0  0  0  0  0  0  0  0  0  0  0  0
    0.8000    0.3500    0.0000 C   0  0  0  0  0  0  0  0  0  0  0  0
    0.0875   -0.8750    0.0000 C   0  0  0  0  0  0  0  0  0  0  0  0
    3.6500    2.0208    0.0000 C   0  0  0  0  0  0  0  0  0  0  0  0
    2.9417   -0.8667    0.0000 C   0  0  0  0  0  0  0  0  0  0  0  0
   -0.6333   -2.1167    0.0000 C   0  0  0  0  0  0  0  0  0  0  0  0
  2  3  1  0  0  0  0
  3  5  2  0  0  0  0
  4  6  1  0  0  0  0
  5  1  1  0  0  0  0
  6  1  2  0  0  0  0
  7  6  1  0  0  0  0
  8  7  2  0  0  0  0
  9  1  1  0  0  0  0
 10 16  2  0  0  0  0
 11  2  1  0  0  0  0
 12  4  1  0  0  0  0
 13  2  2  0  0  0  0
 14  4  2  0  0  0  0
 15  9  1  0  0  0  0
 16 15  1  0  0  0  0
 17 15  2  0  0  0  0
 18 20  2  0  0  0  0
 19  5  1  0  0  0  0
 20 17  1  0  0  0  0
 21  7  1  0  0  0  0
 22  9  1  0  0  0  0
 23 18  1  0  0  0  0
  3  8  1  0  0  0  0
 18 10  1  0  0  0  0
M  CHG  4   2   1   4   1  11  -1  12  -1
M  END
> <#>
939

> <PLATE>
LAT012

> <ROW>
C

> <COL>
9

> <COORD>
C09

> <LATID>
LAT012C09

> <Supplier>
Chembridge

> <Suplier_CAT#>
5728268

> <Name>
Novel

> <Sec_Name>
230_H10

> <Concentration_(mM)>
2.5

> <IC50_(µM)>
31

> <Yeast_Active?>
-

> <Pubchem_CID>
NULL

$$$$
