
  -ISIS-  08130814242D

 24 26  0  0  0  0  0  0  0  0999 V2000
   -0.4208   -1.4167    0.0000 C   0  0  0  0  0  0  0  0  0  0  0  0
    0.1375   -1.8000    0.0000 C   0  0  0  0  0  0  0  0  0  0  0  0
    0.6375   -1.3875    0.0000 O   0  0  0  0  0  0  0  0  0  0  0  0
    0.4292   -0.7792    0.0000 C   0  0  3  0  0  0  0  0  0  0  0  0
   -0.2458   -0.7792    0.0000 C   0  0  0  0  0  0  0  0  0  0  0  0
   -1.0958   -1.5875    0.0000 C   0  0  0  0  0  0  0  0  0  0  0  0
    0.8292   -0.2000    0.0000 C   0  0  0  0  0  0  0  0  0  0  0  0
    1.5042   -0.2042    0.0000 C   0  0  0  0  0  0  0  0  0  0  0  0
   -0.7125   -0.2875    0.0000 C   0  0  0  0  0  0  0  0  0  0  0  0
    0.1500   -2.5167    0.0000 O   0  0  0  0  0  0  0  0  0  0  0  0
   -1.5625   -1.0875    0.0000 C   0  0  0  0  0  0  0  0  0  0  0  0
    1.8792    0.3125    0.0000 C   0  0  0  0  0  0  0  0  0  0  0  0
   -1.3708   -0.4500    0.0000 C   0  0  0  0  0  0  0  0  0  0  0  0
    1.8000   -0.8542    0.0000 O   0  0  0  0  0  0  0  0  0  0  0  0
    1.5875    0.9000    0.0000 C   0  0  0  0  0  0  0  0  0  0  0  0
    2.5542    0.3125    0.0000 C   0  0  0  0  0  0  0  0  0  0  0  0
   -1.3000   -2.2292    0.0000 O   0  0  0  0  0  0  0  0  0  0  0  0
    2.6875    1.4625    0.0000 C   0  0  0  0  0  0  0  0  0  0  0  0
    2.9500    0.8208    0.0000 C   0  0  0  0  0  0  0  0  0  0  0  0
    1.9875    1.4625    0.0000 C   0  0  0  0  0  0  0  0  0  0  0  0
   -2.2333   -1.2000    0.0000 O   0  0  0  0  0  0  0  0  0  0  0  0
    3.0667    2.0208    0.0000 O   0  0  0  0  0  0  0  0  0  0  0  0
   -0.8625   -2.7042    0.0000 C   0  0  0  0  0  0  0  0  0  0  0  0
   -2.6708   -0.7042    0.0000 C   0  0  0  0  0  0  0  0  0  0  0  0
  2  1  1  0  0  0  0
  3  2  1  0  0  0  0
  4  5  1  0  0  0  0
  5  1  2  0  0  0  0
  6  1  1  0  0  0  0
  7  4  1  0  0  0  0
  8  7  1  0  0  0  0
  9  5  1  0  0  0  0
 10  2  2  0  0  0  0
 11  6  2  0  0  0  0
 12  8  1  0  0  0  0
 13 11  1  0  0  0  0
 14  8  2  0  0  0  0
 15 12  2  0  0  0  0
 16 12  1  0  0  0  0
 17  6  1  0  0  0  0
 18 19  1  0  0  0  0
 19 16  2  0  0  0  0
 20 15  1  0  0  0  0
 21 11  1  0  0  0  0
 22 18  1  0  0  0  0
 23 17  1  0  0  0  0
 24 21  1  0  0  0  0
  3  4  1  0  0  0  0
  9 13  2  0  0  0  0
 20 18  2  0  0  0  0
M  END
> <#>
1213

> <PLATE>
LAT016

> <ROW>
E

> <COL>
3

> <COORD>
E03

> <LATID>
LAT016E03

> <Supplier>
Chembridge

> <Suplier_CAT#>
5711743

> <Name>
Novel

> <Concentration_(mM)>
2.5

> <IC50_(µM)>
inactive

> <Yeast_Active?>
-

> <Pubchem_CID>
738343

$$$$
