
  -ISIS-  08130814242D

 22 23  0  0  0  0  0  0  0  0999 V2000
    5.3167   -0.4667    0.0000 C   0  0  0  0  0  0  0  0  0  0  0  0
    5.9667   -0.8417    0.0000 C   0  0  0  0  0  0  0  0  0  0  0  0
    4.6667   -0.8417    0.0000 C   0  0  0  0  0  0  0  0  0  0  0  0
    6.6167   -0.4667    0.0000 C   0  0  0  0  0  0  0  0  0  0  0  0
    7.2667   -0.8417    0.0000 C   0  0  0  0  0  0  0  0  0  0  0  0
    7.9167   -0.4667    0.0000 C   0  0  0  0  0  0  0  0  0  0  0  0
    8.5667   -0.8417    0.0000 C   0  0  0  0  0  0  0  0  0  0  0  0
    8.5625   -1.5917    0.0000 C   0  0  0  0  0  0  0  0  0  0  0  0
    4.6667   -1.5917    0.0000 C   0  0  0  0  0  0  0  0  0  0  0  0
    5.3167    0.2833    0.0000 O   0  0  0  0  0  0  0  0  0  0  0  0
    6.6167    0.2833    0.0000 O   0  0  0  0  0  0  0  0  0  0  0  0
    7.2667   -1.5917    0.0000 C   0  0  0  0  0  0  0  0  0  0  0  0
    7.9125   -1.9667    0.0000 C   0  0  0  0  0  0  0  0  0  0  0  0
    9.2167   -0.4667    0.0000 O   0  0  0  0  0  0  0  0  0  0  0  0
    5.3167   -1.9667    0.0000 O   0  0  0  0  0  0  0  0  0  0  0  0
    9.2125   -1.9667    0.0000 O   0  0  0  0  0  0  0  0  0  0  0  0
    4.0125   -0.4625    0.0000 C   0  0  0  0  0  0  0  0  0  0  0  0
    4.0125   -1.9667    0.0000 C   0  0  0  0  0  0  0  0  0  0  0  0
    9.8625   -0.8417    0.0000 C   0  0  0  0  0  0  0  0  0  0  0  0
    9.2125   -2.7167    0.0000 C   0  0  0  0  0  0  0  0  0  0  0  0
    3.3667   -0.8417    0.0000 C   0  0  0  0  0  0  0  0  0  0  0  0
    3.3667   -1.5917    0.0000 C   0  0  0  0  0  0  0  0  0  0  0  0
  2  1  1  0  0  0  0
  3  1  1  0  0  0  0
  4  2  1  0  0  0  0
  5  4  1  0  0  0  0
  6  5  2  0  0  0  0
  7  6  1  0  0  0  0
  8 13  1  0  0  0  0
  9  3  2  0  0  0  0
 10  1  2  0  0  0  0
 11  4  2  0  0  0  0
 12  5  1  0  0  0  0
 13 12  2  0  0  0  0
 14  7  1  0  0  0  0
 15  9  1  0  0  0  0
 16  8  1  0  0  0  0
 17  3  1  0  0  0  0
 18  9  1  0  0  0  0
 19 14  1  0  0  0  0
 20 16  1  0  0  0  0
 21 17  2  0  0  0  0
 22 21  1  0  0  0  0
 18 22  2  0  0  0  0
  7  8  2  0  0  0  0
M  END
> <#>
1248

> <PLATE>
LAT016

> <ROW>
H

> <COL>
7

> <COORD>
H07

> <LATID>
LAT016H07

> <Supplier>
Chembridge

> <Suplier_CAT#>
6155208

> <Name>
Novel

> <Concentration_(mM)>
2.5

> <IC50_(µM)>
inactive

> <Yeast_Active?>
-

> <Pubchem_CID>
745291

$$$$
