
  -ISIS-  08130814242D

 22 24  0  0  0  0  0  0  0  0999 V2000
    2.6625    1.1083    0.0000 N   0  0  3  0  0  0  0  0  0  0  0  0
    1.9167    1.0333    0.0000 C   0  0  0  0  0  0  0  0  0  0  0  0
    1.7542    0.2958    0.0000 N   0  0  0  0  0  0  0  0  0  0  0  0
    2.9667    0.4250    0.0000 C   0  0  0  0  0  0  0  0  0  0  0  0
    2.4042   -0.0792    0.0000 N   0  0  0  0  0  0  0  0  0  0  0  0
    3.0375    1.7583    0.0000 C   0  0  0  0  0  0  0  0  0  0  0  0
    4.9125    2.4083    0.0000 C   0  0  3  0  0  0  0  0  0  0  0  0
    1.4125    1.5875    0.0000 C   0  0  0  0  0  0  0  0  0  0  0  0
    4.1625    2.4083    0.0000 C   0  0  0  0  0  0  0  0  0  0  0  0
    3.7875    1.7583    0.0000 C   0  0  0  0  0  0  0  0  0  0  0  0
    3.7000    0.2708    0.0000 S   0  0  0  0  0  0  0  0  0  0  0  0
    1.1417    2.8583    0.0000 N   0  0  0  0  0  0  0  0  0  0  0  0
    5.1042    3.1333    0.0000 F   0  0  0  0  0  0  0  0  0  0  0  0
    4.8417    1.6625    0.0000 F   0  0  0  0  0  0  0  0  0  0  0  0
    5.6500    2.2833    0.0000 F   0  0  0  0  0  0  0  0  0  0  0  0
    1.6417    2.3000    0.0000 C   0  0  0  0  0  0  0  0  0  0  0  0
    2.6625    2.4083    0.0000 C   0  0  0  0  0  0  0  0  0  0  0  0
    0.6792    1.4333    0.0000 C   0  0  0  0  0  0  0  0  0  0  0  0
    3.7875    3.0583    0.0000 C   0  0  0  0  0  0  0  0  0  0  0  0
    3.0375    3.0583    0.0000 C   0  0  0  0  0  0  0  0  0  0  0  0
    0.4042    2.7083    0.0000 C   0  0  0  0  0  0  0  0  0  0  0  0
    0.1792    1.9958    0.0000 C   0  0  0  0  0  0  0  0  0  0  0  0
  2  1  1  0  0  0  0
  3  2  2  0  0  0  0
  4  1  1  0  0  0  0
  5  4  1  0  0  0  0
  6  1  1  0  0  0  0
  7  9  1  0  0  0  0
  8  2  1  0  0  0  0
  9 10  2  0  0  0  0
 10  6  1  0  0  0  0
 11  4  2  0  0  0  0
 12 16  2  0  0  0  0
 13  7  1  0  0  0  0
 14  7  1  0  0  0  0
 15  7  1  0  0  0  0
 16  8  1  0  0  0  0
 17  6  2  0  0  0  0
 18  8  2  0  0  0  0
 19 20  2  0  0  0  0
 20 17  1  0  0  0  0
 21 22  2  0  0  0  0
 22 18  1  0  0  0  0
  5  3  1  0  0  0  0
  9 19  1  0  0  0  0
 21 12  1  0  0  0  0
M  END
> <#>
1689

> <PLATE>
LAT022

> <ROW>
A

> <COL>
3

> <COORD>
A03

> <LATID>
LAT022A03

> <Supplier>
Chembridge

> <Suplier_CAT#>
7912079

> <Name>
Novel

> <Concentration_(mM)>
2.5

> <IC50_(µM)>
inactive

> <Yeast_Active?>
-

> <Pubchem_CID>
974218

$$$$
