
  -ISIS-  08130814242D

 22 24  0  0  0  0  0  0  0  0999 V2000
   -0.7500   -0.0792    0.0000 C   0  0  0  0  0  0  0  0  0  0  0  0
   -1.4708    0.3458    0.0000 C   0  0  0  0  0  0  0  0  0  0  0  0
   -2.1708   -0.0792    0.0000 C   0  0  0  0  0  0  0  0  0  0  0  0
   -0.0333    0.3458    0.0000 C   0  0  0  0  0  0  0  0  0  0  0  0
    0.6875   -0.0792    0.0000 C   0  0  0  0  0  0  0  0  0  0  0  0
   -0.7500   -0.9167    0.0000 C   0  0  0  0  0  0  0  0  0  0  0  0
    1.4042    0.3458    0.0000 C   0  0  0  0  0  0  0  0  0  0  0  0
   -2.1708   -0.9167    0.0000 C   0  0  0  0  0  0  0  0  0  0  0  0
   -1.4708   -1.3167    0.0000 C   0  0  0  0  0  0  0  0  0  0  0  0
   -0.0333    1.1833    0.0000 O   0  0  0  0  0  0  0  0  0  0  0  0
   -1.4708    1.1625    0.0000 O   0  0  0  0  0  0  0  0  0  0  0  0
    2.1292   -0.0792    0.0000 C   0  0  0  0  0  0  0  0  0  0  0  0
    3.5500   -0.9167    0.0000 C   0  0  0  0  0  0  0  0  0  0  0  0
    2.1292   -0.9000    0.0000 C   0  0  0  0  0  0  0  0  0  0  0  0
    2.8292    0.3458    0.0000 C   0  0  0  0  0  0  0  0  0  0  0  0
    2.8292   -1.3167    0.0000 C   0  0  0  0  0  0  0  0  0  0  0  0
    3.5500   -0.0792    0.0000 C   0  0  0  0  0  0  0  0  0  0  0  0
   -2.8958    0.3458    0.0000 C   0  0  0  0  0  0  0  0  0  0  0  0
   -2.8958   -1.3167    0.0000 C   0  0  0  0  0  0  0  0  0  0  0  0
    4.2667   -1.3375    0.0000 C   0  0  0  0  0  0  0  0  0  0  0  0
   -3.6125   -0.0792    0.0000 C   0  0  0  0  0  0  0  0  0  0  0  0
   -3.6125   -0.9167    0.0000 C   0  0  0  0  0  0  0  0  0  0  0  0
  2  1  1  0  0  0  0
  3  2  2  0  0  0  0
  4  1  1  0  0  0  0
  5  4  1  0  0  0  0
  6  1  2  0  0  0  0
  7  5  2  0  0  0  0
  8  9  2  0  0  0  0
  9  6  1  0  0  0  0
 10  4  2  0  0  0  0
 11  2  1  0  0  0  0
 12  7  1  0  0  0  0
 13 17  1  0  0  0  0
 14 12  2  0  0  0  0
 15 12  1  0  0  0  0
 16 14  1  0  0  0  0
 17 15  2  0  0  0  0
 18  3  1  0  0  0  0
 19  8  1  0  0  0  0
 20 13  1  0  0  0  0
 21 18  2  0  0  0  0
 22 19  2  0  0  0  0
  3  8  1  0  0  0  0
 21 22  1  0  0  0  0
 16 13  2  0  0  0  0
M  END
> <#>
1226

> <PLATE>
LAT016

> <ROW>
B

> <COL>
5

> <COORD>
B05

> <LATID>
LAT016B05

> <Supplier>
Chembridge

> <Suplier_CAT#>
6144728

> <Name>
Novel

> <Concentration_(mM)>
2.5

> <IC50_(µM)>
inactive

> <Yeast_Active?>
-

> <Pubchem_CID>
2888018

$$$$
