
  -ISIS-  08130814242D

 23 26  0  0  0  0  0  0  0  0999 V2000
    0.5500   -0.5875    0.0000 C   0  0  0  0  0  0  0  0  0  0  0  0
    1.5667   -1.5292    0.0000 C   0  0  0  0  0  0  0  0  0  0  0  0
   -0.6708   -1.2667    0.0000 C   0  0  0  0  0  0  0  0  0  0  0  0
    0.6500   -3.0667    0.0000 S   0  0  0  0  0  0  0  0  0  0  0  0
   -0.6708   -2.6500    0.0000 C   0  0  0  0  0  0  0  0  0  0  0  0
    0.5500    0.8125    0.0000 N   0  0  0  0  0  0  0  0  0  0  0  0
   -1.8500    0.8125    0.0000 N   0  0  3  0  0  0  0  0  0  0  0  0
   -1.8500   -0.5667    0.0000 C   0  0  0  0  0  0  0  0  0  0  0  0
   -0.6708    1.5125    0.0000 C   0  0  0  0  0  0  0  0  0  0  0  0
    2.8875   -1.1042    0.0000 C   0  0  0  0  0  0  0  0  0  0  0  0
   -1.8500   -3.3292    0.0000 N   0  0  0  0  0  0  0  0  0  0  0  0
   -3.0500    1.5125    0.0000 C   0  0  0  0  0  0  0  0  0  0  0  0
    3.9042   -2.0500    0.0000 O   0  0  0  0  0  0  0  0  0  0  0  0
   -3.0500   -1.2500    0.0000 C   0  0  0  0  0  0  0  0  0  0  0  0
   -3.0708   -2.6292    0.0000 C   0  0  0  0  0  0  0  0  0  0  0  0
    3.2042    0.2500    0.0000 O   0  0  0  0  0  0  0  0  0  0  0  0
   -4.2333    0.8125    0.0000 C   0  0  0  0  0  0  0  0  0  0  0  0
   -3.0500    2.8958    0.0000 C   0  0  0  0  0  0  0  0  0  0  0  0
    2.1875    1.1708    0.0000 C   0  0  0  0  0  0  0  0  0  0  0  0
    2.4875    2.5208    0.0000 C   0  0  0  0  0  0  0  0  0  0  0  0
   -5.4333    1.4958    0.0000 C   0  0  0  0  0  0  0  0  0  0  0  0
   -4.2333    3.5708    0.0000 C   0  0  0  0  0  0  0  0  0  0  0  0
   -5.4333    2.8958    0.0000 C   0  0  0  0  0  0  0  0  0  0  0  0
  2  1  2  0  0  0  0
  3  1  1  0  0  0  0
  4  2  1  0  0  0  0
  5  3  2  0  0  0  0
  6  1  1  0  0  0  0
  7  9  1  0  0  0  0
  8  3  1  0  0  0  0
  9  6  2  0  0  0  0
 10  2  1  0  0  0  0
 11  5  1  0  0  0  0
 12  7  1  0  0  0  0
 13 10  2  0  0  0  0
 14  8  2  0  0  0  0
 15 14  1  0  0  0  0
 16 10  1  0  0  0  0
 17 12  1  0  0  0  0
 18 12  2  0  0  0  0
 19 16  1  0  0  0  0
 20 19  1  0  0  0  0
 21 17  2  0  0  0  0
 22 18  1  0  0  0  0
 23 22  2  0  0  0  0
  7  8  1  0  0  0  0
  5  4  1  0  0  0  0
 11 15  2  0  0  0  0
 21 23  1  0  0  0  0
M  END
> <#>
1045

> <PLATE>
LAT014

> <ROW>
E

> <COL>
2

> <COORD>
E02

> <LATID>
LAT014E02

> <Supplier>
Chembridge

> <Suplier_CAT#>
5240464

> <Name>
Novel

> <Concentration_(mM)>
2.5

> <IC50_(µM)>
42

> <Yeast_Active?>
-

> <Pubchem_CID>
750240

$$$$
