
  -ISIS-  08130814242D

 20 22  0  0  0  0  0  0  0  0999 V2000
   -1.5208    0.0125    0.0000 C   0  0  0  0  0  0  0  0  0  0  0  0
   -2.6000   -0.6167    0.0000 C   0  0  0  0  0  0  0  0  0  0  0  0
   -1.5208   -0.6167    0.0000 C   0  0  0  0  0  0  0  0  0  0  0  0
   -2.6000    0.0125    0.0000 C   0  0  0  0  0  0  0  0  0  0  0  0
   -2.0625   -0.9167    0.0000 C   0  0  0  0  0  0  0  0  0  0  0  0
   -2.0625    0.3125    0.0000 C   0  0  0  0  0  0  0  0  0  0  0  0
   -0.9833    0.3125    0.0000 C   0  0  0  0  0  0  0  0  0  0  0  0
   -3.1458   -0.9167    0.0000 C   0  0  0  0  0  0  0  0  0  0  0  0
   -0.9833   -0.9167    0.0000 C   0  0  0  0  0  0  0  0  0  0  0  0
   -3.1458    0.3125    0.0000 C   0  0  0  0  0  0  0  0  0  0  0  0
   -2.0625    0.9458    0.0000 O   0  0  0  0  0  0  0  0  0  0  0  0
   -2.0625   -1.5500    0.0000 O   0  0  0  0  0  0  0  0  0  0  0  0
   -0.4458    0.0125    0.0000 C   0  0  0  0  0  0  0  0  0  0  0  0
   -3.6833   -0.6167    0.0000 C   0  0  0  0  0  0  0  0  0  0  0  0
   -3.6833    0.0125    0.0000 C   0  0  0  0  0  0  0  0  0  0  0  0
   -0.4458   -0.6167    0.0000 C   0  0  0  0  0  0  0  0  0  0  0  0
   -0.9833    0.9458    0.0000 N   0  0  0  0  0  0  0  0  0  0  0  0
   -3.1625   -1.4042    0.0000 N   0  0  0  0  0  0  0  0  0  0  0  0
   -3.1458    0.9500    0.0000 O   0  0  0  0  0  0  0  0  0  0  0  0
   -0.9958   -1.4292    0.0000 O   0  0  0  0  0  0  0  0  0  0  0  0
  2  4  2  0  0  0  0
  3  1  2  0  0  0  0
  4  6  1  0  0  0  0
  5  3  1  0  0  0  0
  6  1  1  0  0  0  0
  7  1  1  0  0  0  0
  8  2  1  0  0  0  0
  9  3  1  0  0  0  0
 10  4  1  0  0  0  0
 11  6  2  0  0  0  0
 12  5  2  0  0  0  0
 13  7  2  0  0  0  0
 14 15  1  0  0  0  0
 15 10  2  0  0  0  0
 16 13  1  0  0  0  0
 17  7  1  0  0  0  0
 18  8  1  0  0  0  0
 19 10  1  0  0  0  0
 20  9  1  0  0  0  0
  2  5  1  0  0  0  0
 16  9  2  0  0  0  0
 14  8  2  0  0  0  0
M  END
> <#>
1178

> <PLATE>
LAT015

> <ROW>
B

> <COL>
9

> <COORD>
B09

> <LATID>
LAT015B09

> <Supplier>
Chembridge

> <Suplier_CAT#>
5155194

> <Name>
Novel

> <Concentration_(mM)>
2.5

> <IC50_(µM)>
inactive

> <Yeast_Active?>
-

> <Pubchem_CID>
NULL

$$$$
