
  -ISIS-  08130814242D

 29 33  0  0  0  0  0  0  0  0999 V2000
    3.6042   -3.8375    0.0000 C   0  0  0  0  0  0  0  0  0  0  0  0
    3.3792   -3.1292    0.0000 C   0  0  0  0  0  0  0  0  0  0  0  0
    4.9500   -3.7292    0.0000 C   0  0  3  0  0  0  0  0  0  0  0  0
    3.1000   -4.4000    0.0000 N   0  0  0  0  0  0  0  0  0  0  0  0
    5.5792   -4.1500    0.0000 C   0  0  0  0  0  0  0  0  0  0  0  0
    4.3000   -4.1042    0.0000 O   0  0  0  0  0  0  0  0  0  0  0  0
    5.0542   -2.9875    0.0000 N   0  0  0  0  0  0  0  0  0  0  0  0
    2.6500   -2.9667    0.0000 N   0  0  0  0  0  0  0  0  0  0  0  0
    3.7875   -2.5042    0.0000 C   0  0  0  0  0  0  0  0  0  0  0  0
    2.3667   -4.2375    0.0000 C   0  0  0  0  0  0  0  0  0  0  0  0
    4.5375   -2.4375    0.0000 C   0  0  0  0  0  0  0  0  0  0  0  0
    5.5292   -4.8875    0.0000 C   0  0  0  0  0  0  0  0  0  0  0  0
    6.2500   -3.8042    0.0000 C   0  0  0  0  0  0  0  0  0  0  0  0
    2.1292   -3.5167    0.0000 N   0  0  0  0  0  0  0  0  0  0  0  0
    6.1500   -5.3042    0.0000 C   0  0  0  0  0  0  0  0  0  0  0  0
    6.8667   -4.2292    0.0000 C   0  0  0  0  0  0  0  0  0  0  0  0
    6.8167   -4.9792    0.0000 C   0  0  0  0  0  0  0  0  0  0  0  0
    7.6000   -4.0500    0.0000 O   0  0  0  0  0  0  0  0  0  0  0  0
    7.5167   -5.2542    0.0000 O   0  0  0  0  0  0  0  0  0  0  0  0
    8.0000   -4.6792    0.0000 C   0  0  0  0  0  0  0  0  0  0  0  0
    1.8542   -4.7875    0.0000 S   0  0  0  0  0  0  0  0  0  0  0  0
    4.8542   -5.2167    0.0000 Br  0  0  0  0  0  0  0  0  0  0  0  0
    3.3542   -1.8875    0.0000 C   0  0  0  0  0  0  0  0  0  0  0  0
    4.8542   -1.7542    0.0000 C   0  0  0  0  0  0  0  0  0  0  0  0
    1.1292   -4.6292    0.0000 C   0  0  0  0  0  0  0  0  0  0  0  0
    0.6292   -5.1875    0.0000 C   0  0  0  0  0  0  0  0  0  0  0  0
    3.6792   -1.2042    0.0000 C   0  0  0  0  0  0  0  0  0  0  0  0
    4.4292   -1.1375    0.0000 C   0  0  0  0  0  0  0  0  0  0  0  0
   -0.1000   -5.0292    0.0000 C   0  0  0  0  0  0  0  0  0  0  0  0
  2  1  2  0  0  0  0
  3  6  1  0  0  0  0
  4  1  1  0  0  0  0
  5  3  1  0  0  0  0
  6  1  1  0  0  0  0
  7  3  1  0  0  0  0
  8  2  1  0  0  0  0
  9  2  1  0  0  0  0
 10  4  2  0  0  0  0
 11  9  2  0  0  0  0
 12  5  1  0  0  0  0
 13  5  2  0  0  0  0
 14 10  1  0  0  0  0
 15 12  2  0  0  0  0
 16 13  1  0  0  0  0
 17 16  2  0  0  0  0
 18 16  1  0  0  0  0
 19 17  1  0  0  0  0
 20 18  1  0  0  0  0
 21 10  1  0  0  0  0
 22 12  1  0  0  0  0
 23  9  1  0  0  0  0
 24 11  1  0  0  0  0
 25 21  1  0  0  0  0
 26 25  1  0  0  0  0
 27 23  2  0  0  0  0
 28 27  1  0  0  0  0
 29 26  1  0  0  0  0
 14  8  2  0  0  0  0
 11  7  1  0  0  0  0
 28 24  2  0  0  0  0
 17 15  1  0  0  0  0
 19 20  1  0  0  0  0
M  END
> <#>
855

> <PLATE>
LAT011

> <ROW>
G

> <COL>
8

> <COORD>
G08

> <LATID>
LAT011G08

> <Supplier>
Chembridge

> <Suplier_CAT#>
5651842

> <Name>
Novel

> <Sec_Name>
199_E11

> <Concentration_(mM)>
2.5

> <IC50_(µM)>
44

> <Yeast_Active?>
-

> <Pubchem_CID>
2858311

$$$$
