
  -ISIS-  08130814242D

 19 20  0  0  0  0  0  0  0  0999 V2000
   -0.6500   -0.3000    0.0000 C   0  0  0  0  0  0  0  0  0  0  0  0
   -0.6500    0.5458    0.0000 C   0  0  0  0  0  0  0  0  0  0  0  0
   -1.3958   -0.7042    0.0000 C   0  0  0  0  0  0  0  0  0  0  0  0
    0.0542   -0.7042    0.0000 C   0  0  0  0  0  0  0  0  0  0  0  0
   -1.3958    0.9625    0.0000 C   0  0  0  0  0  0  0  0  0  0  0  0
   -2.1333   -0.3000    0.0000 C   0  0  0  0  0  0  0  0  0  0  0  0
   -2.1333    0.5625    0.0000 C   0  0  0  0  0  0  0  0  0  0  0  0
    0.8000   -0.3000    0.0000 C   0  0  0  0  0  0  0  0  0  0  0  0
    0.0542   -1.6000    0.0000 O   0  0  0  0  0  0  0  0  0  0  0  0
    0.8000    0.5458    0.0000 O   0  0  0  0  0  0  0  0  0  0  0  0
    0.0542    1.0000    0.0000 O   0  0  0  0  0  0  0  0  0  0  0  0
   -1.3958   -1.5500    0.0000 O   0  0  0  0  0  0  0  0  0  0  0  0
    1.5500    0.9625    0.0000 C   0  0  0  0  0  0  0  0  0  0  0  0
   -2.8708    1.0000    0.0000 C   0  0  0  0  0  0  0  0  0  0  0  0
    1.5500    1.8208    0.0000 C   0  0  0  0  0  0  0  0  0  0  0  0
    2.2542    0.5458    0.0000 C   0  0  0  0  0  0  0  0  0  0  0  0
    2.2542    2.2458    0.0000 C   0  0  0  0  0  0  0  0  0  0  0  0
    3.0000    0.9833    0.0000 C   0  0  0  0  0  0  0  0  0  0  0  0
    3.0000    1.8000    0.0000 C   0  0  0  0  0  0  0  0  0  0  0  0
  2  1  2  0  0  0  0
  3  1  1  0  0  0  0
  4  1  1  0  0  0  0
  5  2  1  0  0  0  0
  6  3  2  0  0  0  0
  7  6  1  0  0  0  0
  8  4  1  0  0  0  0
  9  4  2  0  0  0  0
 10  8  1  0  0  0  0
 11  2  1  0  0  0  0
 12  3  1  0  0  0  0
 13 10  1  0  0  0  0
 14  7  1  0  0  0  0
 15 13  2  0  0  0  0
 16 13  1  0  0  0  0
 17 15  1  0  0  0  0
 18 16  2  0  0  0  0
 19 18  1  0  0  0  0
  5  7  2  0  0  0  0
 19 17  2  0  0  0  0
M  END
> <#>
1285

> <PLATE>
LAT017

> <ROW>
E

> <COL>
2

> <COORD>
E02

> <LATID>
LAT017E02

> <Supplier>
Chembridge

> <Suplier_CAT#>
6687144

> <Name>
Novel

> <Concentration_(mM)>
2.5

> <IC50_(µM)>
>100

> <Yeast_Active?>
-

> <Pubchem_CID>
805755

$$$$
