
  -ISIS-  08130814242D

 27 30  0  0  0  0  0  0  0  0999 V2000
    4.4500    0.1250    0.0000 N   0  0  3  0  0  0  0  0  0  0  0  0
    4.4500   -2.4500    0.0000 C   0  0  1  0  0  0  0  0  0  0  0  0
    3.7208    0.5542    0.0000 C   0  0  0  0  0  0  0  0  0  0  0  0
    3.7208    1.4125    0.0000 C   0  0  0  0  0  0  0  0  0  0  0  0
    5.1750    1.4125    0.0000 N   0  0  0  0  0  0  0  0  0  0  0  0
    4.0292   -3.1500    0.0000 C   0  0  3  0  0  0  0  0  0  0  0  0
    5.1750    0.5542    0.0000 C   0  0  0  0  0  0  0  0  0  0  0  0
    3.5250   -1.9167    0.0000 O   0  0  0  0  0  0  0  0  0  0  0  0
    3.0333   -3.1500    0.0000 C   0  0  2  0  0  0  0  0  0  0  0  0
    2.6542   -2.4833    0.0000 C   0  0  1  0  0  0  0  0  0  0  0  0
    2.9958    1.8417    0.0000 C   0  0  0  0  0  0  0  0  0  0  0  0
    2.9917    0.1333    0.0000 N   0  0  0  0  0  0  0  0  0  0  0  0
    2.2667    1.4125    0.0000 N   0  0  0  0  0  0  0  0  0  0  0  0
    2.2667    0.5542    0.0000 C   0  0  0  0  0  0  0  0  0  0  0  0
    3.9875   -3.8083    0.0000 O   0  0  0  0  0  0  0  0  0  0  0  0
    2.9958    2.3542    0.0000 N   0  0  0  0  0  0  0  0  0  0  0  0
    3.0333   -3.8083    0.0000 O   0  0  0  0  0  0  0  0  0  0  0  0
    2.3042   -1.8667    0.0000 C   0  0  0  0  0  0  0  0  0  0  0  0
    2.9958    3.2125    0.0000 C   0  0  0  0  0  0  0  0  0  0  0  0
    1.5417    3.2125    0.0000 C   0  0  0  0  0  0  0  0  0  0  0  0
    1.6292   -1.6792    0.0000 O   0  0  0  0  0  0  0  0  0  0  0  0
    2.2667    3.6333    0.0000 C   0  0  0  0  0  0  0  0  0  0  0  0
    1.5417    2.3542    0.0000 C   0  0  0  0  0  0  0  0  0  0  0  0
    0.8167    3.6333    0.0000 C   0  0  0  0  0  0  0  0  0  0  0  0
    0.0875    3.2125    0.0000 C   0  0  0  0  0  0  0  0  0  0  0  0
    0.8167    1.9250    0.0000 C   0  0  0  0  0  0  0  0  0  0  0  0
    0.0875    2.3542    0.0000 C   0  0  0  0  0  0  0  0  0  0  0  0
  2  1  1  0  0  0  0
  3  1  1  0  0  0  0
  4  3  2  0  0  0  0
  5  7  2  0  0  0  0
  2  6  1  1  0  0  0
  7  1  1  0  0  0  0
  8  2  1  0  0  0  0
  9  6  1  1  0  0  0
 10  8  1  0  0  0  0
 11  4  1  0  0  0  0
 12  3  1  0  0  0  0
 13 14  1  0  0  0  0
 14 12  2  0  0  0  0
 15  6  1  0  0  0  0
 16 11  1  0  0  0  0
 17  9  1  0  0  0  0
 18 10  1  0  0  0  0
 19 16  1  0  0  0  0
 20 22  1  0  0  0  0
 21 18  1  0  0  0  0
 22 19  1  0  0  0  0
 23 20  2  0  0  0  0
 24 20  1  0  0  0  0
 25 24  2  0  0  0  0
 26 23  1  0  0  0  0
 27 25  1  0  0  0  0
  4  5  1  0  0  0  0
 10  9  1  1  0  0  0
 13 11  2  0  0  0  0
 26 27  2  0  0  0  0
M  END
> <#>
267

> <PLATE>
LAT004

> <ROW>
C

> <COL>
5

> <COORD>
C05

> <LATID>
LAT004C05

> <Supplier>
Sigma

> <Suplier_CAT#>
P-107

> <Name>
N6-2-Phenylethyladenosine

> <Concentration_(mM)>
2.5

> <IC50_(µM)>
12

> <Yeast_Active?>
-

> <Pubchem_CID>
4398

> <Description>
Kinetin Analog

> <Comment>
In mammals, 'Selective A1 adenosine receptor agonist

> <LATCA_Notes>
Kinetin analog with potent cytokinin activity

$$$$
