
  -ISIS-  08130814242D

 21 24  0  0  0  0  0  0  0  0999 V2000
   -1.3500    1.0333    0.0000 C   0  0  0  0  0  0  0  0  0  0  0  0
   -0.5708    0.5958    0.0000 C   0  0  0  0  0  0  0  0  0  0  0  0
   -0.5708   -0.3292    0.0000 C   0  0  0  0  0  0  0  0  0  0  0  0
   -1.3500   -0.7875    0.0000 C   0  0  0  0  0  0  0  0  0  0  0  0
   -1.3500    1.9583    0.0000 C   0  0  0  0  0  0  0  0  0  0  0  0
   -2.1333    0.5958    0.0000 C   0  0  0  0  0  0  0  0  0  0  0  0
   -0.5500    2.4000    0.0000 C   0  0  0  0  0  0  0  0  0  0  0  0
    0.2292    1.9583    0.0000 N   0  0  0  0  0  0  0  0  0  0  0  0
    0.2292    1.0333    0.0000 C   0  0  0  0  0  0  0  0  0  0  0  0
   -2.1333   -0.3292    0.0000 C   0  0  0  0  0  0  0  0  0  0  0  0
    0.2292   -0.7875    0.0000 C   0  0  0  0  0  0  0  0  0  0  0  0
   -1.3500   -1.6875    0.0000 O   0  0  0  0  0  0  0  0  0  0  0  0
   -0.5500    3.3000    0.0000 O   0  0  0  0  0  0  0  0  0  0  0  0
    1.0042    0.5958    0.0000 C   0  0  0  0  0  0  0  0  0  0  0  0
   -2.1333    2.4208    0.0000 N   0  0  0  0  0  0  0  0  0  0  0  0
    1.0042   -0.3292    0.0000 C   0  0  0  0  0  0  0  0  0  0  0  0
   -2.9125    1.0333    0.0000 C   0  0  0  0  0  0  0  0  0  0  0  0
    0.2375   -1.6875    0.0000 O   0  0  0  0  0  0  0  0  0  0  0  0
   -2.9125   -0.7875    0.0000 C   0  0  0  0  0  0  0  0  0  0  0  0
   -3.6958    0.5958    0.0000 C   0  0  0  0  0  0  0  0  0  0  0  0
   -3.6958   -0.3292    0.0000 C   0  0  0  0  0  0  0  0  0  0  0  0
  2  1  1  0  0  0  0
  3  2  2  0  0  0  0
  4 10  1  0  0  0  0
  5  1  2  0  0  0  0
  6  1  1  0  0  0  0
  7  5  1  0  0  0  0
  8  7  1  0  0  0  0
  9  2  1  0  0  0  0
 10  6  2  0  0  0  0
 11  3  1  0  0  0  0
 12  4  2  0  0  0  0
 13  7  2  0  0  0  0
 14  9  2  0  0  0  0
 15  5  1  0  0  0  0
 16 14  1  0  0  0  0
 17  6  1  0  0  0  0
 18 11  1  0  0  0  0
 19 10  1  0  0  0  0
 20 17  2  0  0  0  0
 21 20  1  0  0  0  0
  8  9  1  0  0  0  0
  3  4  1  0  0  0  0
 21 19  2  0  0  0  0
 11 16  2  0  0  0  0
M  END
> <#>
1172

> <PLATE>
LAT015

> <ROW>
D

> <COL>
8

> <COORD>
D08

> <LATID>
LAT015D08

> <Supplier>
Chembridge

> <Suplier_CAT#>
5708111

> <Name>
Novel

> <Sec_Name>
227_E03

> <Concentration_(mM)>
2.5

> <IC50_(µM)>
>100

> <Yeast_Active?>
-

> <Pubchem_CID>
NULL

$$$$
