
  -ISIS-  08130814242D

 10 10  0  0  0  0  0  0  0  0999 V2000
   -2.4361    1.6180    0.0000 C   0  0  3  0  0  0  0  0  0  0  0  0
   -2.4334    0.3637    0.0000 C   0  0  1  0  0  0  0  0  0  0  0  0
   -1.3541   -0.2585    0.0000 C   0  0  1  0  0  0  0  0  0  0  0  0
   -0.2617    0.3675    0.0000 C   0  0  1  0  0  0  0  0  0  0  0  0
   -0.2586    1.6126    0.0000 C   0  0  0  0  0  0  0  0  0  0  0  0
   -1.3541    2.2450    0.0000 O   0  0  0  0  0  0  0  0  0  0  0  0
    0.8500   -0.2576    0.0000 O   0  0  0  0  0  0  0  0  0  0  0  0
   -1.3575   -1.5160    0.0000 O   0  0  0  0  0  0  0  0  0  0  0  0
   -3.5252   -0.2718    0.0000 O   0  0  0  0  0  0  0  0  0  0  0  0
   -3.5371    2.2524    0.0000 O   0  0  0  0  0  0  0  0  0  0  0  0
  1  2  1  0  0  0  0
  2  3  1  0  0  0  0
  3  4  1  0  0  0  0
  4  5  1  0  0  0  0
  5  6  1  0  0  0  0
  4  7  1  1  0  0  0
  3  8  1  1  0  0  0
  2  9  1  1  0  0  0
  1 10  1  0  0  0  0
  1  6  1  0  0  0  0
M  END
> <#>
420

> <PLATE>
LAT006

> <ROW>
D

> <COL>
4

> <COORD>
D04

> <LATID>
LAT006D04

> <Supplier>
Nutirional Biochemicals

> <Suplier_CAT#>
Lyxose

> <Name>
D (-)- Lyxose

> <Concentration_(mM)>
2.5

> <IC50_(µM)>
inactive

> <Yeast_Active?>
-

> <Pubchem_CID>
229

$$$$
