
  -ISIS-  08130814242D

 20 22  0  0  0  0  0  0  0  0999 V2000
   -5.0208   -1.4375    0.0000 N   0  3  0  0  0  0  0  0  0  0  0  0
   -1.7333    0.2458    0.0000 N   0  0  0  0  0  0  0  0  0  0  0  0
   -1.7333   -1.2375    0.0000 N   0  0  0  0  0  0  0  0  0  0  0  0
   -1.2125   -0.4792    0.0000 C   0  0  0  0  0  0  0  0  0  0  0  0
   -2.6125   -0.9542    0.0000 C   0  0  0  0  0  0  0  0  0  0  0  0
   -2.6125   -0.0292    0.0000 C   0  0  0  0  0  0  0  0  0  0  0  0
   -4.1958   -0.9542    0.0000 C   0  0  0  0  0  0  0  0  0  0  0  0
   -3.3958   -1.4167    0.0000 C   0  0  0  0  0  0  0  0  0  0  0  0
   -5.7958   -0.9792    0.0000 O   0  5  0  0  0  0  0  0  0  0  0  0
   -5.0208   -2.3542    0.0000 O   0  0  0  0  0  0  0  0  0  0  0  0
   -3.3958    0.4208    0.0000 C   0  0  0  0  0  0  0  0  0  0  0  0
   -4.1958   -0.0292    0.0000 C   0  0  0  0  0  0  0  0  0  0  0  0
   -0.2708   -0.4792    0.0000 C   0  0  0  0  0  0  0  0  0  0  0  0
    0.1875   -1.2792    0.0000 C   0  0  0  0  0  0  0  0  0  0  0  0
    1.1042   -1.2792    0.0000 C   0  0  0  0  0  0  0  0  0  0  0  0
    1.5667   -2.0792    0.0000 C   0  0  0  0  0  0  0  0  0  0  0  0
    1.5667   -0.4792    0.0000 C   0  0  0  0  0  0  0  0  0  0  0  0
    2.4875   -0.4792    0.0000 C   0  0  0  0  0  0  0  0  0  0  0  0
    2.4875   -2.0792    0.0000 C   0  0  0  0  0  0  0  0  0  0  0  0
    2.9500   -1.2792    0.0000 C   0  0  0  0  0  0  0  0  0  0  0  0
  2  6  1  0  0  0  0
  3  5  1  0  0  0  0
  4  3  1  0  0  0  0
  5  8  1  0  0  0  0
  6 11  1  0  0  0  0
  7  1  1  0  0  0  0
  8  7  2  0  0  0  0
  9  1  1  0  0  0  0
 10  1  2  0  0  0  0
 11 12  2  0  0  0  0
 12  7  1  0  0  0  0
 13  4  1  0  0  0  0
 14 13  1  0  0  0  0
 15 14  1  0  0  0  0
 16 15  2  0  0  0  0
 17 15  1  0  0  0  0
 18 17  2  0  0  0  0
 19 16  1  0  0  0  0
 20 18  1  0  0  0  0
  5  6  2  0  0  0  0
  2  4  2  0  0  0  0
 19 20  2  0  0  0  0
M  CHG  2   1   1   9  -1
M  END
> <#>
1848

> <PLATE>
LAT024

> <ROW>
H

> <COL>
2

> <COORD>
H02

> <LATID>
LAT024H02

> <Supplier>
Chembridge

> <Suplier_CAT#>
5716261

> <Name>
Nibenzizole

> <Sec_Name>
227_H06

> <Concentration_(mM)>
2.5

> <IC50_(µM)>
7

> <Yeast_Active?>
-

> <Pubchem_CID>
NULL

$$$$
