
  -ISIS-  08130814242D

 32 33  0  0  0  0  0  0  0  0999 V2000
   -3.1000    0.0333    0.0000 N   0  0  3  0  0  0  0  0  0  0  0  0
   -2.5625    0.8125    0.0000 C   0  0  0  0  0  0  0  0  0  0  0  0
   -3.1000    1.5958    0.0000 N   0  0  0  0  0  0  0  0  0  0  0  0
    0.1375   -0.5792    0.0000 C   0  0  0  0  0  0  0  0  0  0  0  0
    0.1292   -2.2500    0.0000 C   0  0  0  0  0  0  0  0  0  0  0  0
    0.6167   -1.4167    0.0000 C   0  0  0  0  0  0  0  0  0  0  0  0
   -4.0458    0.3208    0.0000 C   0  0  0  0  0  0  0  0  0  0  0  0
   -3.1000   -0.9292    0.0000 C   0  0  0  0  0  0  0  0  0  0  0  0
   -4.0458    1.2958    0.0000 C   0  0  0  0  0  0  0  0  0  0  0  0
   -1.3208   -1.4042    0.0000 C   0  0  0  0  0  0  0  0  0  0  0  0
   -0.8458   -0.5792    0.0000 C   0  0  0  0  0  0  0  0  0  0  0  0
   -0.8458   -2.2500    0.0000 C   0  0  0  0  0  0  0  0  0  0  0  0
   -2.2708   -1.4042    0.0000 C   0  0  0  0  0  0  0  0  0  0  0  0
    0.6167    0.2458    0.0000 C   0  0  3  0  0  0  0  0  0  0  0  0
    0.6042   -3.0792    0.0000 C   0  0  3  0  0  0  0  0  0  0  0  0
   -1.6000    0.8125    0.0000 N   0  0  0  0  0  0  0  0  0  0  0  0
   -2.2708   -2.3542    0.0000 O   0  0  0  0  0  0  0  0  0  0  0  0
    1.5667   -1.4167    0.0000 O   0  0  0  0  0  0  0  0  0  0  0  0
   -4.8833   -0.1542    0.0000 C   0  0  0  0  0  0  0  0  0  0  0  0
   -4.8833    1.7833    0.0000 C   0  0  0  0  0  0  0  0  0  0  0  0
    0.3167    2.4708    0.0000 O   0  0  0  0  0  0  0  0  0  0  0  0
   -0.2125    0.7333    0.0000 C   0  0  0  0  0  0  0  0  0  0  0  0
    1.4500   -0.2500    0.0000 C   0  0  0  0  0  0  0  0  0  0  0  0
    1.1000    1.0500    0.0000 C   0  0  0  0  0  0  0  0  0  0  0  0
    1.0792   -3.9000    0.0000 C   0  0  0  0  0  0  0  0  0  0  0  0
    1.4375   -2.6000    0.0000 C   0  0  0  0  0  0  0  0  0  0  0  0
   -0.2208   -3.5542    0.0000 C   0  0  0  0  0  0  0  0  0  0  0  0
   -1.1208    1.6458    0.0000 C   0  0  0  0  0  0  0  0  0  0  0  0
   -0.1625    1.6458    0.0000 C   0  0  0  0  0  0  0  0  0  0  0  0
   -5.7208    0.3208    0.0000 C   0  0  0  0  0  0  0  0  0  0  0  0
   -5.7208    1.2958    0.0000 C   0  0  0  0  0  0  0  0  0  0  0  0
    3.6292   -3.5292    0.0000 Br  0  0  0  0  0  0  0  0  0  0  0  0
  2  1  1  0  0  0  0
  3  2  2  0  0  0  0
  4 11  2  0  0  0  0
  5 12  1  0  0  0  0
  6  5  2  0  0  0  0
  7  1  1  0  0  0  0
  8  1  1  0  0  0  0
  9  7  2  0  0  0  0
 10 13  1  0  0  0  0
 11 10  1  0  0  0  0
 12 10  2  0  0  0  0
 13  8  1  0  0  0  0
 14  4  1  0  0  0  0
 15  5  1  0  0  0  0
 16  2  1  0  0  0  0
 17 13  2  0  0  0  0
 18  6  1  0  0  0  0
 19  7  1  0  0  0  0
 20  9  1  0  0  0  0
 21 29  1  0  0  0  0
 22 14  1  0  0  0  0
 23 14  1  0  0  0  0
 24 14  1  0  0  0  0
 25 15  1  0  0  0  0
 26 15  1  0  0  0  0
 27 15  1  0  0  0  0
 28 16  1  0  0  0  0
 29 28  1  0  0  0  0
 30 19  2  0  0  0  0
 31 30  1  0  0  0  0
  9  3  1  0  0  0  0
 20 31  2  0  0  0  0
  4  6  1  0  0  0  0
M  END
> <#>
1151

> <PLATE>
LAT015

> <ROW>
G

> <COL>
5

> <COORD>
G05

> <LATID>
LAT015G05

> <Supplier>
Chembridge

> <Suplier_CAT#>
5555740

> <Name>
Novel

> <Concentration_(mM)>
2.5

> <IC50_(µM)>
52

> <Yeast_Active?>
-

> <Pubchem_CID>
2852292

$$$$
