
  -ISIS-  08130814242D

 30 33  0  0  0  0  0  0  0  0999 V2000
    4.1667   -0.5292    0.0000 N   0  0  3  0  0  0  0  0  0  0  0  0
    3.5167   -0.0292    0.0000 C   0  0  0  0  0  0  0  0  0  0  0  0
    3.7792    0.7458    0.0000 N   0  0  0  0  0  0  0  0  0  0  0  0
    4.8417   -0.0625    0.0000 C   0  0  0  0  0  0  0  0  0  0  0  0
    4.6042    0.7250    0.0000 N   0  0  0  0  0  0  0  0  0  0  0  0
    5.6417   -0.2750    0.0000 S   0  0  0  0  0  0  0  0  0  0  0  0
    4.1667   -1.3542    0.0000 C   0  0  0  0  0  0  0  0  0  0  0  0
    6.8792   -0.9875    0.0000 C   0  0  0  0  0  0  0  0  0  0  0  0
    2.7167   -0.2500    0.0000 C   0  0  0  0  0  0  0  0  0  0  0  0
    7.7042   -0.9792    0.0000 N   0  0  0  0  0  0  0  0  0  0  0  0
    6.4667   -1.7042    0.0000 O   0  0  0  0  0  0  0  0  0  0  0  0
    6.4667   -0.2750    0.0000 C   0  0  0  0  0  0  0  0  0  0  0  0
    8.1125   -0.2542    0.0000 C   0  0  0  0  0  0  0  0  0  0  0  0
    8.9500   -0.2542    0.0000 C   0  0  0  0  0  0  0  0  0  0  0  0
   10.6000   -0.2417    0.0000 C   0  0  0  0  0  0  0  0  0  0  0  0
    9.3667   -0.9667    0.0000 C   0  0  0  0  0  0  0  0  0  0  0  0
    9.3542    0.4625    0.0000 C   0  0  0  0  0  0  0  0  0  0  0  0
   10.1917   -0.9625    0.0000 C   0  0  0  0  0  0  0  0  0  0  0  0
   10.1792    0.4708    0.0000 C   0  0  0  0  0  0  0  0  0  0  0  0
    3.4500   -1.7625    0.0000 C   0  0  0  0  0  0  0  0  0  0  0  0
    4.8750   -1.7625    0.0000 C   0  0  0  0  0  0  0  0  0  0  0  0
    2.5042   -1.0500    0.0000 C   0  0  0  0  0  0  0  0  0  0  0  0
    2.1292    0.3375    0.0000 C   0  0  0  0  0  0  0  0  0  0  0  0
   11.4292   -0.2375    0.0000 C   0  0  0  0  0  0  0  0  0  0  0  0
    1.3292    0.1250    0.0000 C   0  0  0  0  0  0  0  0  0  0  0  0
    1.7000   -1.2625    0.0000 C   0  0  0  0  0  0  0  0  0  0  0  0
    4.8667   -2.5917    0.0000 C   0  0  0  0  0  0  0  0  0  0  0  0
    3.4417   -2.5792    0.0000 C   0  0  0  0  0  0  0  0  0  0  0  0
    1.1125   -0.6750    0.0000 C   0  0  0  0  0  0  0  0  0  0  0  0
    4.1542   -3.0000    0.0000 C   0  0  0  0  0  0  0  0  0  0  0  0
  2  1  1  0  0  0  0
  3  2  2  0  0  0  0
  4  1  1  0  0  0  0
  5  4  2  0  0  0  0
  6  4  1  0  0  0  0
  7  1  1  0  0  0  0
  8 12  1  0  0  0  0
  9  2  1  0  0  0  0
 10  8  1  0  0  0  0
 11  8  2  0  0  0  0
 12  6  1  0  0  0  0
 13 10  1  0  0  0  0
 14 13  1  0  0  0  0
 15 19  1  0  0  0  0
 16 14  2  0  0  0  0
 17 14  1  0  0  0  0
 18 16  1  0  0  0  0
 19 17  2  0  0  0  0
 20  7  2  0  0  0  0
 21  7  1  0  0  0  0
 22  9  1  0  0  0  0
 23  9  2  0  0  0  0
 24 15  1  0  0  0  0
 25 23  1  0  0  0  0
 26 22  2  0  0  0  0
 27 21  2  0  0  0  0
 28 20  1  0  0  0  0
 29 25  2  0  0  0  0
 30 27  1  0  0  0  0
  3  5  1  0  0  0  0
 28 30  2  0  0  0  0
 26 29  1  0  0  0  0
 18 15  2  0  0  0  0
M  END
> <#>
1729

> <PLATE>
LAT022

> <ROW>
A

> <COL>
8

> <COORD>
A08

> <LATID>
LAT022A08

> <Supplier>
Chembridge

> <Suplier_CAT#>
7491047

> <Name>
Novel

> <Concentration_(mM)>
2.5

> <IC50_(µM)>
inactive

> <Yeast_Active?>
-

> <Pubchem_CID>
1314627

$$$$
