
  -ISIS-  08130814242D

 25 27  0  0  0  0  0  0  0  0999 V2000
    1.3542    0.1333    0.0000 N   0  0  0  0  0  0  0  0  0  0  0  0
    1.9542    1.0458    0.0000 N   0  0  3  0  0  0  0  0  0  0  0  0
    0.2375    1.4958    0.0000 C   0  0  0  0  0  0  0  0  0  0  0  0
    0.3000    0.4000    0.0000 C   0  0  0  0  0  0  0  0  0  0  0  0
    1.2542    1.9125    0.0000 C   0  0  0  0  0  0  0  0  0  0  0  0
   -3.6000    1.4458    0.0000 C   0  0  0  0  0  0  0  0  0  0  0  0
   -1.6708    1.4458    0.0000 N   0  0  0  0  0  0  0  0  0  0  0  0
   -0.5958   -0.1542    0.0000 C   0  0  0  0  0  0  0  0  0  0  0  0
   -0.7458    2.0208    0.0000 C   0  0  0  0  0  0  0  0  0  0  0  0
    3.0042    1.0458    0.0000 C   0  0  0  0  0  0  0  0  0  0  0  0
   -2.6458    2.0208    0.0000 N   0  0  0  0  0  0  0  0  0  0  0  0
   -3.6000    0.3208    0.0000 O   0  0  0  0  0  0  0  0  0  0  0  0
   -1.6125    0.3208    0.0000 C   0  0  0  0  0  0  0  0  0  0  0  0
   -0.5625   -1.2875    0.0000 C   0  0  0  0  0  0  0  0  0  0  0  0
   -4.5625    2.0208    0.0000 N   0  0  0  0  0  0  0  0  0  0  0  0
   -2.4625   -1.3542    0.0000 C   0  0  0  0  0  0  0  0  0  0  0  0
   -1.4625   -1.8500    0.0000 C   0  0  0  0  0  0  0  0  0  0  0  0
   -2.5000   -0.3000    0.0000 C   0  0  0  0  0  0  0  0  0  0  0  0
   -3.3625   -2.0042    0.0000 O   0  0  0  0  0  0  0  0  0  0  0  0
    3.6042    2.0625    0.0000 C   0  0  0  0  0  0  0  0  0  0  0  0
    3.6292    0.2125    0.0000 C   0  0  0  0  0  0  0  0  0  0  0  0
   -4.3958   -1.5375    0.0000 C   0  0  0  0  0  0  0  0  0  0  0  0
    4.7042    2.0625    0.0000 C   0  0  0  0  0  0  0  0  0  0  0  0
    4.8167    0.2125    0.0000 C   0  0  0  0  0  0  0  0  0  0  0  0
    5.2375    1.0625    0.0000 C   0  0  0  0  0  0  0  0  0  0  0  0
  2  1  1  0  0  0  0
  3  4  1  0  0  0  0
  4  1  2  0  0  0  0
  5  2  1  0  0  0  0
  6 11  1  0  0  0  0
  7  9  2  0  0  0  0
  8  4  1  0  0  0  0
  9  3  1  0  0  0  0
 10  2  1  0  0  0  0
 11  7  1  0  0  0  0
 12  6  2  0  0  0  0
 13  8  1  0  0  0  0
 14  8  2  0  0  0  0
 15  6  1  0  0  0  0
 16 17  2  0  0  0  0
 17 14  1  0  0  0  0
 18 13  2  0  0  0  0
 19 16  1  0  0  0  0
 20 10  2  0  0  0  0
 21 10  1  0  0  0  0
 22 19  1  0  0  0  0
 23 20  1  0  0  0  0
 24 21  2  0  0  0  0
 25 24  1  0  0  0  0
  5  3  2  0  0  0  0
 16 18  1  0  0  0  0
 25 23  2  0  0  0  0
M  END
> <#>
1753

> <PLATE>
LAT022

> <ROW>
A

> <COL>
11

> <COORD>
A11

> <LATID>
LAT022A11

> <Supplier>
Chembridge

> <Suplier_CAT#>
5749485

> <Name>
Novel

> <Sec_Name>
237_B05

> <Concentration_(mM)>
2.5

> <IC50_(µM)>
25

> <Yeast_Active?>
-

> <Pubchem_CID>
869620

$$$$
