
  -ISIS-  08130814242D

 24 26  0  0  0  0  0  0  0  0999 V2000
   -0.4208    0.6500    0.0000 C   0  0  0  0  0  0  0  0  0  0  0  0
   -1.1208    0.2958    0.0000 N   0  0  0  0  0  0  0  0  0  0  0  0
   -1.7625    0.6708    0.0000 N   0  0  3  0  0  0  0  0  0  0  0  0
    0.2167    0.2625    0.0000 C   0  0  0  0  0  0  0  0  0  0  0  0
   -0.4208    1.3708    0.0000 C   0  0  0  0  0  0  0  0  0  0  0  0
   -1.7625    1.3708    0.0000 C   0  0  0  0  0  0  0  0  0  0  0  0
    1.5292    0.2625    0.0000 N   0  0  0  0  0  0  0  0  0  0  0  0
    0.8875    0.6708    0.0000 N   0  0  0  0  0  0  0  0  0  0  0  0
    0.2167   -0.5000    0.0000 O   0  0  0  0  0  0  0  0  0  0  0  0
    4.2375    0.2833    0.0000 N   0  0  0  0  0  0  0  0  0  0  0  0
   -2.4625    0.3125    0.0000 C   0  0  0  0  0  0  0  0  0  0  0  0
    2.2042    0.6708    0.0000 C   0  0  0  0  0  0  0  0  0  0  0  0
    2.8875    0.2833    0.0000 C   0  0  0  0  0  0  0  0  0  0  0  0
   -3.1125    0.6958    0.0000 C   0  0  0  0  0  0  0  0  0  0  0  0
   -4.4833    1.4958    0.0000 C   0  0  0  0  0  0  0  0  0  0  0  0
   -5.1625    1.8958    0.0000 Cl  0  0  0  0  0  0  0  0  0  0  0  0
   -4.4833    0.6958    0.0000 C   0  0  0  0  0  0  0  0  0  0  0  0
   -3.8000    1.8833    0.0000 C   0  0  0  0  0  0  0  0  0  0  0  0
   -3.8000    0.2958    0.0000 C   0  0  0  0  0  0  0  0  0  0  0  0
   -3.1125    1.4958    0.0000 C   0  0  0  0  0  0  0  0  0  0  0  0
    3.6000    0.6958    0.0000 C   0  0  0  0  0  0  0  0  0  0  0  0
    4.2375   -0.4792    0.0000 C   0  0  0  0  0  0  0  0  0  0  0  0
    2.8875   -0.5042    0.0000 C   0  0  0  0  0  0  0  0  0  0  0  0
    3.6042   -0.8667    0.0000 C   0  0  0  0  0  0  0  0  0  0  0  0
  2  1  2  0  0  0  0
  3  2  1  0  0  0  0
  4  1  1  0  0  0  0
  5  1  1  0  0  0  0
  6  5  2  0  0  0  0
  7  8  1  0  0  0  0
  8  4  1  0  0  0  0
  9  4  2  0  0  0  0
 10 21  1  0  0  0  0
 11  3  1  0  0  0  0
 12  7  2  0  0  0  0
 13 12  1  0  0  0  0
 14 11  1  0  0  0  0
 15 18  2  0  0  0  0
 16 15  1  0  0  0  0
 17 19  2  0  0  0  0
 18 20  1  0  0  0  0
 19 14  1  0  0  0  0
 20 14  2  0  0  0  0
 21 13  2  0  0  0  0
 22 24  1  0  0  0  0
 23 13  1  0  0  0  0
 24 23  2  0  0  0  0
  6  3  1  0  0  0  0
 15 17  1  0  0  0  0
 10 22  2  0  0  0  0
M  END
> <#>
1696

> <PLATE>
LAT022

> <ROW>
H

> <COL>
3

> <COORD>
H03

> <LATID>
LAT022H03

> <Supplier>
Chembridge

> <Suplier_CAT#>
5770038

> <Name>
Novel

> <Concentration_(mM)>
2.5

> <IC50_(µM)>
inactive

> <Yeast_Active?>
-

> <Pubchem_CID>
869828

$$$$
