
  -ISIS-  08130814242D

 18 19  0  0  0  0  0  0  0  0999 V2000
   -2.1625    1.7708    0.0000 N   0  0  0  0  0  0  0  0  0  0  0  0
   -1.3000    0.2500    0.0000 N   0  0  3  0  0  0  0  0  0  0  0  0
   -1.2000    1.3125    0.0000 C   0  0  0  0  0  0  0  0  0  0  0  0
   -2.3625    0.0125    0.0000 C   0  0  0  0  0  0  0  0  0  0  0  0
   -2.9000    0.9500    0.0000 C   0  0  0  0  0  0  0  0  0  0  0  0
   -0.2458    1.8708    0.0000 C   0  0  0  0  0  0  0  0  0  0  0  0
   -0.4833   -0.4875    0.0000 C   0  0  0  0  0  0  0  0  0  0  0  0
   -2.9208   -0.9292    0.0000 C   0  0  0  0  0  0  0  0  0  0  0  0
   -4.0000    0.9500    0.0000 C   0  0  0  0  0  0  0  0  0  0  0  0
    0.7167    1.3125    0.0000 O   0  0  0  0  0  0  0  0  0  0  0  0
    0.5542   -0.1292    0.0000 C   0  0  0  0  0  0  0  0  0  0  0  0
    4.2375   -0.9042    0.0000 C   0  0  0  0  0  0  0  0  0  0  0  0
    3.2000   -1.2500    0.0000 C   0  0  0  0  0  0  0  0  0  0  0  0
    1.3792   -0.8500    0.0000 C   0  0  0  0  0  0  0  0  0  0  0  0
    2.4000   -0.5042    0.0000 C   0  0  0  0  0  0  0  0  0  0  0  0
   -4.0208   -0.9292    0.0000 C   0  0  0  0  0  0  0  0  0  0  0  0
   -4.5458    0.0125    0.0000 C   0  0  0  0  0  0  0  0  0  0  0  0
    5.0375   -1.6292    0.0000 C   0  0  0  0  0  0  0  0  0  0  0  0
  2  3  1  0  0  0  0
  3  1  2  0  0  0  0
  4  5  2  0  0  0  0
  5  1  1  0  0  0  0
  6  3  1  0  0  0  0
  7  2  1  0  0  0  0
  8  4  1  0  0  0  0
  9  5  1  0  0  0  0
 10  6  1  0  0  0  0
 11  7  1  0  0  0  0
 12 13  1  0  0  0  0
 13 15  1  0  0  0  0
 14 11  1  0  0  0  0
 15 14  1  0  0  0  0
 16 17  1  0  0  0  0
 17  9  2  0  0  0  0
 18 12  1  0  0  0  0
  4  2  1  0  0  0  0
  8 16  2  0  0  0  0
M  END
> <#>
807

> <PLATE>
LAT011

> <ROW>
G

> <COL>
2

> <COORD>
G02

> <LATID>
LAT011G02

> <Supplier>
Chembridge

> <Suplier_CAT#>
5658573

> <Name>
Novel

> <Sec_Name>
204_C09

> <Concentration_(mM)>
2.5

> <IC50_(µM)>
49

> <Yeast_Active?>
-

> <Pubchem_CID>
2858956

$$$$
