
  -ISIS-  08130814242D

 22 24  0  0  0  0  0  0  0  0999 V2000
    3.9125    3.5083    0.0000 N   0  0  3  0  0  0  0  0  0  0  0  0
    3.1792    3.3458    0.0000 N   0  0  0  0  0  0  0  0  0  0  0  0
    4.2875    2.8583    0.0000 C   0  0  0  0  0  0  0  0  0  0  0  0
    3.7792    2.2958    0.0000 N   0  0  0  0  0  0  0  0  0  0  0  0
    4.2167    4.1792    0.0000 S   0  0  3  0  0  0  0  0  0  0  0  0
    3.1000    2.6000    0.0000 C   0  0  0  0  0  0  0  0  0  0  0  0
    2.4417    2.2250    0.0000 C   0  0  0  0  0  0  0  0  0  0  0  0
    5.0292    2.7750    0.0000 N   0  0  0  0  0  0  0  0  0  0  0  0
    3.6292    4.6542    0.0000 O   0  0  0  0  0  0  0  0  0  0  0  0
    4.8667    3.8333    0.0000 O   0  0  0  0  0  0  0  0  0  0  0  0
    6.4542    1.3625    0.0000 S   0  0  0  0  0  0  0  0  0  0  0  0
    6.0792    2.0208    0.0000 C   0  0  0  0  0  0  0  0  0  0  0  0
    7.1917    1.5208    0.0000 C   0  0  0  0  0  0  0  0  0  0  0  0
    6.5792    2.5708    0.0000 C   0  0  0  0  0  0  0  0  0  0  0  0
    1.1500    2.2250    0.0000 N   0  0  0  0  0  0  0  0  0  0  0  0
    7.2667    2.2708    0.0000 C   0  0  0  0  0  0  0  0  0  0  0  0
    5.3375    2.0958    0.0000 C   0  0  0  0  0  0  0  0  0  0  0  0
    4.6292    4.8042    0.0000 C   0  0  0  0  0  0  0  0  0  0  0  0
    1.8000    2.6000    0.0000 C   0  0  0  0  0  0  0  0  0  0  0  0
    2.4417    1.4750    0.0000 C   0  0  0  0  0  0  0  0  0  0  0  0
    1.1500    1.4750    0.0000 C   0  0  0  0  0  0  0  0  0  0  0  0
    1.8000    1.1000    0.0000 C   0  0  0  0  0  0  0  0  0  0  0  0
  2  1  1  0  0  0  0
  3  1  1  0  0  0  0
  4  3  2  0  0  0  0
  5  1  1  0  0  0  0
  6  2  2  0  0  0  0
  7  6  1  0  0  0  0
  8  3  1  0  0  0  0
  9  5  2  0  0  0  0
 10  5  2  0  0  0  0
 11 12  1  0  0  0  0
 12 17  1  0  0  0  0
 13 11  1  0  0  0  0
 14 12  2  0  0  0  0
 15 19  2  0  0  0  0
 16 14  1  0  0  0  0
 17  8  1  0  0  0  0
 18  5  1  0  0  0  0
 19  7  1  0  0  0  0
 20  7  2  0  0  0  0
 21 22  2  0  0  0  0
 22 20  1  0  0  0  0
  4  6  1  0  0  0  0
 16 13  2  0  0  0  0
 21 15  1  0  0  0  0
M  END
> <#>
1648

> <PLATE>
LAT021

> <ROW>
H

> <COL>
7

> <COORD>
H07

> <LATID>
LAT021H07

> <Supplier>
Chembridge

> <Suplier_CAT#>
7987811

> <Name>
Novel

> <Concentration_(mM)>
2.5

> <IC50_(µM)>
inactive

> <Yeast_Active?>
-

> <Pubchem_CID>
2983504

$$$$
