
  -ISIS-  08130814242D

 21 21  0  0  0  0  0  0  0  0999 V2000
    5.4292   -0.3792    0.0000 C   0  0  0  0  0  0  0  0  0  0  0  0
    4.6042   -0.3875    0.0000 C   0  0  0  0  0  0  0  0  0  0  0  0
    7.9000   -1.8042    0.0000 C   0  0  0  0  0  0  0  0  0  0  0  0
    5.8417   -1.0917    0.0000 C   0  0  0  0  0  0  0  0  0  0  0  0
    6.6667   -1.0917    0.0000 O   0  0  0  0  0  0  0  0  0  0  0  0
    8.3042   -1.0917    0.0000 O   0  0  0  0  0  0  0  0  0  0  0  0
    8.3125   -2.5167    0.0000 O   0  0  0  0  0  0  0  0  0  0  0  0
    5.4292   -1.8042    0.0000 C   0  0  0  0  0  0  0  0  0  0  0  0
    4.2000   -1.1000    0.0000 C   0  0  0  0  0  0  0  0  0  0  0  0
    7.0792   -1.8042    0.0000 C   0  0  0  0  0  0  0  0  0  0  0  0
    5.8417    0.3333    0.0000 Cl  0  0  0  0  0  0  0  0  0  0  0  0
    4.6042   -1.8042    0.0000 C   0  0  0  0  0  0  0  0  0  0  0  0
    3.3750   -1.1000    0.0000 Cl  0  0  0  0  0  0  0  0  0  0  0  0
    9.1292   -2.5167    0.0000 C   0  0  3  0  0  0  0  0  0  0  0  0
    9.5417   -3.2292    0.0000 C   0  0  0  0  0  0  0  0  0  0  0  0
   12.0125   -4.6542    0.0000 C   0  0  0  0  0  0  0  0  0  0  0  0
    9.5417   -1.8042    0.0000 C   0  0  0  0  0  0  0  0  0  0  0  0
   10.3667   -3.2292    0.0000 C   0  0  0  0  0  0  0  0  0  0  0  0
   11.6000   -3.9417    0.0000 C   0  0  0  0  0  0  0  0  0  0  0  0
   10.7792   -3.9417    0.0000 C   0  0  0  0  0  0  0  0  0  0  0  0
   12.8292   -4.6542    0.0000 C   0  0  0  0  0  0  0  0  0  0  0  0
  2  1  1  0  0  0  0
  3 10  1  0  0  0  0
  4  1  2  0  0  0  0
  5  4  1  0  0  0  0
  6  3  2  0  0  0  0
  7  3  1  0  0  0  0
  8  4  1  0  0  0  0
  9  2  2  0  0  0  0
 10  5  1  0  0  0  0
 11  1  1  0  0  0  0
 12  8  2  0  0  0  0
 13  9  1  0  0  0  0
 14  7  1  0  0  0  0
 15 14  1  0  0  0  0
 16 19  1  0  0  0  0
 17 14  1  0  0  0  0
 18 15  1  0  0  0  0
 19 20  1  0  0  0  0
 20 18  1  0  0  0  0
 21 16  1  0  0  0  0
  9 12  1  0  0  0  0
M  END
> <#>
190

> <PLATE>
LAT003

> <ROW>
F

> <COL>
5

> <COORD>
F05

> <LATID>
LAT003F05

> <Supplier>
Microsource

> <Suplier_CAT#>
00330048

> <Name>
2,4-Dichlorophenoxyacetic Acid, Isooctyl Ester

> <Concentration_(mM)>
2.5

> <IC50_(µM)>
0.53

> <Yeast_Active?>
-

> <Pubchem_CID>
1487

> <Description>
Herbicide

> <Comment>
Auxin agonist

$$$$
