
  -ISIS-  08130814242D

 20 21  0  0  0  0  0  0  0  0999 V2000
   -4.0208    0.2208    0.0000 N   0  3  0  0  0  0  0  0  0  0  0  0
   -3.3458    0.6000    0.0000 C   0  0  0  0  0  0  0  0  0  0  0  0
   -3.3458    1.3958    0.0000 C   0  0  0  0  0  0  0  0  0  0  0  0
   -1.2708    1.7958    0.0000 N   0  0  0  0  0  0  0  0  0  0  0  0
   -4.7458    0.5625    0.0000 O   0  5  0  0  0  0  0  0  0  0  0  0
   -2.6500    1.7708    0.0000 C   0  0  0  0  0  0  0  0  0  0  0  0
    0.3500    2.1458    0.0000 C   0  0  0  0  0  0  0  0  0  0  0  0
   -1.9708    1.3958    0.0000 C   0  0  0  0  0  0  0  0  0  0  0  0
   -4.0833   -0.5500    0.0000 O   0  0  0  0  0  0  0  0  0  0  0  0
   -0.3000    1.7458    0.0000 C   0  0  0  0  0  0  0  0  0  0  0  0
   -2.6500    0.2000    0.0000 C   0  0  0  0  0  0  0  0  0  0  0  0
    1.0042    1.7833    0.0000 C   0  0  0  0  0  0  0  0  0  0  0  0
   -1.9708    0.6000    0.0000 C   0  0  0  0  0  0  0  0  0  0  0  0
    1.0042    1.0000    0.0000 O   0  0  0  0  0  0  0  0  0  0  0  0
    0.3500    2.9208    0.0000 C   0  0  0  0  0  0  0  0  0  0  0  0
   -2.6500    2.5458    0.0000 C   0  0  0  0  0  0  0  0  0  0  0  0
    1.6792    2.1458    0.0000 C   0  0  0  0  0  0  0  0  0  0  0  0
    0.3500    0.6125    0.0000 C   0  0  0  0  0  0  0  0  0  0  0  0
    1.0042    3.3125    0.0000 C   0  0  0  0  0  0  0  0  0  0  0  0
    1.6792    2.9208    0.0000 C   0  0  0  0  0  0  0  0  0  0  0  0
  2  1  1  0  0  0  0
  3  2  2  0  0  0  0
  4  8  1  0  0  0  0
  5  1  1  0  0  0  0
  6  3  1  0  0  0  0
  7 10  1  0  0  0  0
  8 13  1  0  0  0  0
  9  1  2  0  0  0  0
 10  4  1  0  0  0  0
 11  2  1  0  0  0  0
 12  7  1  0  0  0  0
 13 11  2  0  0  0  0
 14 12  1  0  0  0  0
 15  7  2  0  0  0  0
 16  6  1  0  0  0  0
 17 12  2  0  0  0  0
 18 14  1  0  0  0  0
 19 15  1  0  0  0  0
 20 19  2  0  0  0  0
  8  6  2  0  0  0  0
 17 20  1  0  0  0  0
M  CHG  2   1   1   5  -1
M  END
> <#>
1770

> <PLATE>
LAT023

> <ROW>
B

> <COL>
3

> <COORD>
B03

> <LATID>
LAT023B03

> <Supplier>
Chembridge

> <Suplier_CAT#>
5527442

> <Name>
Novel

> <Sec_Name>
150_E05

> <Concentration_(mM)>
2.5

> <IC50_(µM)>
35

> <Yeast_Active?>
-

> <Pubchem_CID>
2850014

$$$$
