
  -ISIS-  08130814242D

 15 17  0  0  0  0  0  0  0  0999 V2000
    8.8890   -2.6406    0.0000 C   0  0  0  0  0  0  0  0  0  0  0  0
    9.9716   -3.2656    0.0000 C   0  0  0  0  0  0  0  0  0  0  0  0
    9.9716   -4.5156    0.0000 C   0  0  0  0  0  0  0  0  0  0  0  0
    8.8890   -5.1406    0.0000 C   0  0  0  0  0  0  0  0  0  0  0  0
    7.8065   -4.5156    0.0000 C   0  0  0  0  0  0  0  0  0  0  0  0
    6.7240   -5.1406    0.0000 C   0  0  0  0  0  0  0  0  0  0  0  0
    5.6414   -4.5156    0.0000 C   0  0  0  0  0  0  0  0  0  0  0  0
    4.5589   -5.1406    0.0000 C   0  0  0  0  0  0  0  0  0  0  0  0
    3.4764   -4.5156    0.0000 C   0  0  0  0  0  0  0  0  0  0  0  0
    3.4764   -3.2656    0.0000 C   0  0  0  0  0  0  0  0  0  0  0  0
    4.5589   -2.6406    0.0000 C   0  0  0  0  0  0  0  0  0  0  0  0
    5.6414   -3.2656    0.0000 C   0  0  0  0  0  0  0  0  0  0  0  0
    6.7240   -2.6406    0.0000 C   0  0  0  0  0  0  0  0  0  0  0  0
    6.7240   -1.3906    0.0000 O   0  0  0  0  0  0  0  0  0  0  0  0
    7.8065   -3.2656    0.0000 C   0  0  0  0  0  0  0  0  0  0  0  0
  1  2  1  0  0  0  0
  2  3  2  0  0  0  0
  3  4  1  0  0  0  0
  4  5  2  0  0  0  0
  5  6  1  0  0  0  0
  6  7  1  0  0  0  0
  7  8  1  0  0  0  0
  8  9  2  0  0  0  0
  9 10  1  0  0  0  0
 10 11  2  0  0  0  0
 11 12  1  0  0  0  0
  7 12  2  0  0  0  0
 12 13  1  0  0  0  0
 13 14  2  0  0  0  0
 13 15  1  0  0  0  0
  5 15  1  0  0  0  0
  1 15  2  0  0  0  0
M  END
> <#>
301

> <PLATE>
LAT004

> <ROW>
E

> <COL>
9

> <COORD>
E09

> <LATID>
LAT004E09

> <Supplier>
Fisher

> <Suplier_CAT#>
A-836

> <Name>
Anthrone

> <Concentration_(mM)>
2.5

> <IC50_(µM)>
>100

> <Yeast_Active?>
-

> <Pubchem_CID>
7018

$$$$
