
  -ISIS-  08130814242D

 19 20  0  0  0  0  0  0  0  0999 V2000
   -1.9833    1.5125    0.0000 C   0  0  0  0  0  0  0  0  0  0  0  0
   -2.7208    1.9583    0.0000 C   0  0  0  0  0  0  0  0  0  0  0  0
   -3.4833    1.5125    0.0000 C   0  0  0  0  0  0  0  0  0  0  0  0
   -1.2208    1.9708    0.0000 C   0  0  0  0  0  0  0  0  0  0  0  0
   -1.9833    0.6500    0.0000 C   0  0  0  0  0  0  0  0  0  0  0  0
   -3.5000    0.6500    0.0000 C   0  0  0  0  0  0  0  0  0  0  0  0
   -2.7208    0.2125    0.0000 C   0  0  0  0  0  0  0  0  0  0  0  0
   -0.4625    1.5333    0.0000 C   0  0  0  0  0  0  0  0  0  0  0  0
   -1.2208    2.8333    0.0000 O   0  0  0  0  0  0  0  0  0  0  0  0
    0.3000    1.9708    0.0000 O   0  0  0  0  0  0  0  0  0  0  0  0
   -4.2708    1.9583    0.0000 O   0  0  0  0  0  0  0  0  0  0  0  0
   -2.7208    2.8125    0.0000 O   0  0  0  0  0  0  0  0  0  0  0  0
   -4.2833    0.2333    0.0000 O   0  0  0  0  0  0  0  0  0  0  0  0
    1.0500    1.5333    0.0000 C   0  0  0  0  0  0  0  0  0  0  0  0
    1.0042    0.6708    0.0000 C   0  0  0  0  0  0  0  0  0  0  0  0
    1.8000    1.9583    0.0000 C   0  0  0  0  0  0  0  0  0  0  0  0
    2.5042    1.5125    0.0000 C   0  0  0  0  0  0  0  0  0  0  0  0
    1.7500    0.2333    0.0000 C   0  0  0  0  0  0  0  0  0  0  0  0
    2.5042    0.6500    0.0000 C   0  0  0  0  0  0  0  0  0  0  0  0
  2  1  1  0  0  0  0
  3  2  2  0  0  0  0
  4  1  1  0  0  0  0
  5  1  2  0  0  0  0
  6  7  2  0  0  0  0
  7  5  1  0  0  0  0
  8  4  1  0  0  0  0
  9  4  2  0  0  0  0
 10  8  1  0  0  0  0
 11  3  1  0  0  0  0
 12  2  1  0  0  0  0
 13  6  1  0  0  0  0
 14 10  1  0  0  0  0
 15 14  1  0  0  0  0
 16 14  2  0  0  0  0
 17 16  1  0  0  0  0
 18 15  2  0  0  0  0
 19 17  2  0  0  0  0
  3  6  1  0  0  0  0
 19 18  1  0  0  0  0
M  END
> <#>
1307

> <PLATE>
LAT017

> <ROW>
C

> <COL>
5

> <COORD>
C05

> <LATID>
LAT017C05

> <Supplier>
Chembridge

> <Suplier_CAT#>
6666640

> <Name>
Novel

> <Concentration_(mM)>
2.5

> <IC50_(µM)>
inactive

> <Yeast_Active?>
-

> <Pubchem_CID>
797370

$$$$
