
  -ISIS-  08130814242D

 12 12  0  0  0  0  0  0  0  0999 V2000
    7.2147   -1.1196    0.0000 C   0  0  0  0  0  0  0  0  0  0  0  0
    5.9647   -1.1196    0.0000 C   0  0  0  0  0  0  0  0  0  0  0  0
    5.3397   -2.2021    0.0000 C   0  0  0  0  0  0  0  0  0  0  0  0
    5.9647   -3.2846    0.0000 C   0  0  0  0  0  0  0  0  0  0  0  0
    4.0897   -2.2021    0.0000 C   0  0  0  0  0  0  0  0  0  0  0  0
    3.4647   -1.1196    0.0000 C   0  0  0  0  0  0  0  0  0  0  0  0
    4.0897   -0.0370    0.0000 C   0  0  0  0  0  0  0  0  0  0  0  0
    5.3397   -0.0370    0.0000 C   0  0  0  0  0  0  0  0  0  0  0  0
    7.8397   -0.0370    0.0000 O   0  0  0  0  0  0  0  0  0  0  0  0
    7.8397   -2.2021    0.0000 O   0  0  0  0  0  0  0  0  0  0  0  0
    7.2147   -3.2846    0.0000 O   0  0  0  0  0  0  0  0  0  0  0  0
    5.3397   -4.3671    0.0000 O   0  0  0  0  0  0  0  0  0  0  0  0
  1  2  1  0  0  0  0
  2  3  1  0  0  0  0
  3  4  1  0  0  0  0
  3  5  2  0  0  0  0
  5  6  1  0  0  0  0
  6  7  2  0  0  0  0
  7  8  1  0  0  0  0
  2  8  2  0  0  0  0
  1  9  2  0  0  0  0
  1 10  1  0  0  0  0
  4 11  2  0  0  0  0
  4 12  1  0  0  0  0
M  END
> <#>
338

> <PLATE>
LAT005

> <ROW>
B

> <COL>
4

> <COORD>
B04

> <LATID>
LAT005B04

> <Supplier>
Sigma

> <Suplier_CAT#>
P-8657

> <Name>
Phthalic Acid

> <Concentration_(mM)>
2.5

> <IC50_(µM)>
inactive

> <Yeast_Active?>
-

> <Pubchem_CID>
1017

$$$$
