
  -ISIS-  08130814242D

 19 20  0  0  0  0  0  0  0  0999 V2000
   -1.1708    0.3458    0.0000 S   0  0  3  0  0  0  0  0  0  0  0  0
   -0.2708    0.3458    0.0000 C   0  0  0  0  0  0  0  0  0  0  0  0
   -2.0833    0.3458    0.0000 N   0  0  0  0  0  0  0  0  0  0  0  0
    0.1875   -0.4500    0.0000 C   0  0  0  0  0  0  0  0  0  0  0  0
   -1.1708    1.2458    0.0000 O   0  0  0  0  0  0  0  0  0  0  0  0
   -1.1708   -0.5667    0.0000 O   0  0  0  0  0  0  0  0  0  0  0  0
    0.1875    1.1333    0.0000 C   0  0  0  0  0  0  0  0  0  0  0  0
    1.1167   -0.4500    0.0000 C   0  0  0  0  0  0  0  0  0  0  0  0
   -3.8958   -1.2375    0.0000 N   0  0  0  0  0  0  0  0  0  0  0  0
   -2.5333   -0.4500    0.0000 C   0  0  0  0  0  0  0  0  0  0  0  0
   -3.4500   -0.4500    0.0000 C   0  0  0  0  0  0  0  0  0  0  0  0
    1.5667    0.3458    0.0000 C   0  0  0  0  0  0  0  0  0  0  0  0
    1.1000    1.1333    0.0000 C   0  0  0  0  0  0  0  0  0  0  0  0
    2.4667    0.3625    0.0000 I   0  0  0  0  0  0  0  0  0  0  0  0
   -0.2500   -1.2292    0.0000 C   0  0  0  0  0  0  0  0  0  0  0  0
   -4.8000   -1.2375    0.0000 C   0  0  0  0  0  0  0  0  0  0  0  0
   -3.8958    0.3458    0.0000 C   0  0  0  0  0  0  0  0  0  0  0  0
   -5.2708   -0.4500    0.0000 C   0  0  0  0  0  0  0  0  0  0  0  0
   -4.8125    0.3458    0.0000 C   0  0  0  0  0  0  0  0  0  0  0  0
  2  1  1  0  0  0  0
  3  1  1  0  0  0  0
  4  2  1  0  0  0  0
  5  1  2  0  0  0  0
  6  1  2  0  0  0  0
  7  2  2  0  0  0  0
  8  4  2  0  0  0  0
  9 11  1  0  0  0  0
 10  3  1  0  0  0  0
 11 10  1  0  0  0  0
 12 13  2  0  0  0  0
 13  7  1  0  0  0  0
 14 12  1  0  0  0  0
 15  4  1  0  0  0  0
 16  9  2  0  0  0  0
 17 11  2  0  0  0  0
 18 19  2  0  0  0  0
 19 17  1  0  0  0  0
  8 12  1  0  0  0  0
 16 18  1  0  0  0  0
M  END
> <#>
1917

> <PLATE>
LAT024

> <ROW>
E

> <COL>
11

> <COORD>
E11

> <LATID>
LAT024E11

> <Supplier>
Chembridge

> <Suplier_CAT#>
5539414

> <Name>
S001 B08

> <Sec_Name>
156_D09

> <Concentration_(mM)>
2.5

> <IC50_(µM)>
15

> <Yeast_Active?>
-

> <Pubchem_CID>
1368652

$$$$
