
  -ISIS-  08130814242D

 40 43  0  0  0  0  0  0  0  0999 V2000
    5.2542   -6.5333    0.0000 Na  0  3  0  0  0  0  0  0  0  0  0  0
    9.0039   -1.4065    0.0000 C   0  0  3  0  0  0  0  0  0  0  0  0
    9.7164   -1.8190    0.0000 C   0  0  0  0  0  0  0  0  0  0  0  0
   10.3289   -1.2688    0.0000 C   0  0  0  0  0  0  0  0  0  0  0  0
    9.9950   -0.5162    0.0000 C   0  0  0  0  0  0  0  0  0  0  0  0
    9.1761   -0.6014    0.0000 C   0  0  0  0  0  0  0  0  0  0  0  0
    7.5750   -2.2250    0.0000 N   0  0  3  0  0  0  0  0  0  0  0  0
    8.2875   -2.6375    0.0000 C   0  0  0  0  0  0  0  0  0  0  0  0
    8.9970   -2.2290    0.0000 C   0  0  0  0  0  0  0  0  0  0  0  0
    8.2878   -0.9938    0.0000 C   0  0  0  0  0  0  0  0  0  0  0  0
    7.5720   -1.4040    0.0000 C   0  0  0  0  0  0  0  0  0  0  0  0
    6.8667   -3.4583    0.0000 C   0  0  0  0  0  0  0  0  0  0  0  0
    7.5750   -3.8667    0.0000 C   0  0  0  0  0  0  0  0  0  0  0  0
    6.8622   -2.6430    0.0000 C   0  0  0  0  0  0  0  0  0  0  0  0
    6.1569   -3.8666    0.0000 C   0  0  0  0  0  0  0  0  0  0  0  0
    6.1516   -4.6898    0.0000 C   0  0  0  0  0  0  0  0  0  0  0  0
    6.8607   -5.1042    0.0000 C   0  0  0  0  0  0  0  0  0  0  0  0
    7.5756   -4.6965    0.0000 C   0  0  0  0  0  0  0  0  0  0  0  0
    2.5985   -5.1041    0.0000 C   0  0  0  0  0  0  0  0  0  0  0  0
    2.5932   -5.9273    0.0000 C   0  0  0  0  0  0  0  0  0  0  0  0
    3.3024   -6.3417    0.0000 C   0  0  0  0  0  0  0  0  0  0  0  0
    4.0173   -5.9340    0.0000 C   0  0  0  0  0  0  0  0  0  0  0  0
    4.0186   -5.1077    0.0000 C   0  0  0  0  0  0  0  0  0  0  0  0
    3.3089   -4.6970    0.0000 C   0  0  0  0  0  0  0  0  0  0  0  0
    1.1694   -5.1041    0.0000 C   0  0  0  0  0  0  0  0  0  0  0  0
    1.1682   -5.9315    0.0000 C   0  0  0  0  0  0  0  0  0  0  0  0
    1.8831   -6.3444    0.0000 C   0  0  0  0  0  0  0  0  0  0  0  0
    1.8813   -4.6914    0.0000 C   0  0  0  0  0  0  0  0  0  0  0  0
    3.3042   -3.8708    0.0000 C   0  0  1  0  0  0  0  0  0  0  0  0
    2.5875   -3.4583    0.0000 C   0  0  0  0  0  0  0  0  0  0  0  0
    2.5833   -2.6333    0.0000 C   0  0  0  0  0  0  0  0  0  0  0  0
    3.2955   -2.2177    0.0000 O   0  5  0  0  0  0  0  0  0  0  0  0
    1.8665   -2.2249    0.0000 O   0  0  0  0  0  0  0  0  0  0  0  0
    4.0167   -3.4583    0.0000 C   0  0  0  0  0  0  0  0  0  0  0  0
    4.7292   -3.8667    0.0000 C   0  0  0  0  0  0  0  0  0  0  0  0
    5.4417   -3.4542    0.0000 N   0  0  0  0  0  0  0  0  0  0  0  0
    4.7250   -4.4417    0.0000 O   0  0  0  0  0  0  0  0  0  0  0  0
    5.4333   -5.0958    0.0000 C   0  0  0  0  0  0  0  0  0  0  0  0
    8.2875   -5.1083    0.0000 C   0  0  0  0  0  0  0  0  0  0  0  0
    6.1417   -2.2292    0.0000 O   0  0  0  0  0  0  0  0  0  0  0  0
 19 20  2  0  0  0  0
  8  9  1  0  0  0  0
 20 21  1  0  0  0  0
  9  2  1  0  0  0  0
 21 22  2  0  0  0  0
  2 10  1  0  0  0  0
 22 23  1  0  0  0  0
 10 11  1  0  0  0  0
 23 24  2  0  0  0  0
 24 19  1  0  0  0  0
 12 13  2  0  0  0  0
  5  6  1  0  0  0  0
 25 26  1  0  0  0  0
  6  2  1  0  0  0  0
 26 27  2  0  0  0  0
 27 20  1  0  0  0  0
  7  8  1  0  0  0  0
 19 28  1  0  0  0  0
 28 25  2  0  0  0  0
 12 14  1  0  0  0  0
 24 29  1  0  0  0  0
  2  3  1  0  0  0  0
 29 30  1  1  0  0  0
 30 31  1  0  0  0  0
 15 16  2  0  0  0  0
 31 32  1  0  0  0  0
 31 33  2  0  0  0  0
 16 17  1  0  0  0  0
 29 34  1  0  0  0  0
  3  4  1  0  0  0  0
 34 35  1  0  0  0  0
 17 18  2  0  0  0  0
 35 36  1  0  0  0  0
 36 15  1  0  0  0  0
 18 13  1  0  0  0  0
 35 37  2  0  0  0  0
 12 15  1  0  0  0  0
 16 38  1  0  0  0  0
  4  5  1  0  0  0  0
 18 39  1  0  0  0  0
  7 11  1  0  0  0  0
 14 40  2  0  0  0  0
 14  7  1  0  0  0  0
M  CHG  2   1   1  32  -1
M  END
> <#>
237

> <PLATE>
LAT003

> <ROW>
E

> <COL>
11

> <COORD>
E11

> <LATID>
LAT003E11

> <Supplier>
Sigma

> <Suplier_CAT#>
I 9778

> <Name>
Cr 2945

> <Concentration_(mM)>
2.5

> <IC50_(µM)>
56

> <Yeast_Active?>
-

> <Pubchem_CID>
6604120

> <Description>
Selective gastrin/CCK(B) receptor antagonist

$$$$
