
  -ISIS-  08130814242D

 21 22  0  0  0  0  0  0  0  0999 V2000
    9.9542   -9.2292    0.0000 S   0  0  3  0  0  0  0  0  0  0  0  0
    9.2042   -9.2292    0.0000 C   0  0  0  0  0  0  0  0  0  0  0  0
    8.8375   -9.8792    0.0000 C   0  0  0  0  0  0  0  0  0  0  0  0
    8.8375  -10.6292    0.0000 N   0  3  0  0  0  0  0  0  0  0  0  0
   10.7042   -9.2375    0.0000 N   0  0  0  0  0  0  0  0  0  0  0  0
    9.9542   -9.9792    0.0000 O   0  0  0  0  0  0  0  0  0  0  0  0
    9.9667   -8.4792    0.0000 O   0  0  0  0  0  0  0  0  0  0  0  0
   12.2167   -7.9375    0.0000 C   0  0  0  0  0  0  0  0  0  0  0  0
   11.8375   -8.5875    0.0000 C   0  0  0  0  0  0  0  0  0  0  0  0
    8.1875  -11.0000    0.0000 O   0  5  0  0  0  0  0  0  0  0  0  0
   11.0875   -8.5875    0.0000 C   0  0  0  0  0  0  0  0  0  0  0  0
    9.4792  -11.0042    0.0000 O   0  0  0  0  0  0  0  0  0  0  0  0
   11.8375   -7.2875    0.0000 C   0  0  0  0  0  0  0  0  0  0  0  0
   11.0875   -7.2875    0.0000 C   0  0  0  0  0  0  0  0  0  0  0  0
   12.9667   -7.9375    0.0000 Cl  0  0  0  0  0  0  0  0  0  0  0  0
   10.7167   -7.9375    0.0000 C   0  0  0  0  0  0  0  0  0  0  0  0
    8.8375   -8.5792    0.0000 C   0  0  0  0  0  0  0  0  0  0  0  0
   12.2167   -6.6375    0.0000 F   0  0  0  0  0  0  0  0  0  0  0  0
    8.0875   -9.8792    0.0000 C   0  0  0  0  0  0  0  0  0  0  0  0
    7.7042   -9.2292    0.0000 C   0  0  0  0  0  0  0  0  0  0  0  0
    8.0875   -8.5792    0.0000 C   0  0  0  0  0  0  0  0  0  0  0  0
  2  1  1  0  0  0  0
  3  2  1  0  0  0  0
  4  3  1  0  0  0  0
  5  1  1  0  0  0  0
  6  1  2  0  0  0  0
  7  1  2  0  0  0  0
  8  9  1  0  0  0  0
  9 11  2  0  0  0  0
 10  4  1  0  0  0  0
 11  5  1  0  0  0  0
 12  4  2  0  0  0  0
 13 14  1  0  0  0  0
 14 16  2  0  0  0  0
 15  8  1  0  0  0  0
 16 11  1  0  0  0  0
 17  2  2  0  0  0  0
 18 13  1  0  0  0  0
 19  3  2  0  0  0  0
 20 21  2  0  0  0  0
 21 17  1  0  0  0  0
 19 20  1  0  0  0  0
  8 13  2  0  0  0  0
M  CHG  2   4   1  10  -1
M  END
> <#>
626

> <PLATE>
LAT008

> <ROW>
B

> <COL>
10

> <COORD>
B10

> <LATID>
LAT008B10

> <Supplier>
Chembridge

> <Suplier_CAT#>
5538622

> <Name>
Novel

> <Sec_Name>
157_E04

> <Concentration_(mM)>
2.5

> <IC50_(µM)>
23

> <Yeast_Active?>
-

> <Pubchem_CID>
771997

$$$$
