
  -ISIS-  08130814242D

 14 14  0  0  0  0  0  0  0  0999 V2000
    5.7272   -4.8854    0.0000 C   0  0  0  0  0  0  0  0  0  0  0  0
    4.6446   -4.2604    0.0000 C   0  0  0  0  0  0  0  0  0  0  0  0
    3.5621   -4.8854    0.0000 C   0  0  0  0  0  0  0  0  0  0  0  0
    2.4796   -4.2604    0.0000 C   0  0  0  0  0  0  0  0  0  0  0  0
    1.3970   -4.8854    0.0000 C   0  0  0  0  0  0  0  0  0  0  0  0
    0.3145   -4.2604    0.0000 C   0  0  0  0  0  0  0  0  0  0  0  0
   -0.7680   -4.8854    0.0000 O   0  0  0  0  0  0  0  0  0  0  0  0
   -0.7680   -6.1354    0.0000 C   0  0  0  0  0  0  0  0  0  0  0  0
    0.3145   -3.0104    0.0000 C   0  0  0  0  0  0  0  0  0  0  0  0
   -0.7680   -2.3854    0.0000 O   0  0  0  0  0  0  0  0  0  0  0  0
    1.3970   -2.3854    0.0000 C   0  0  0  0  0  0  0  0  0  0  0  0
    2.4796   -3.0104    0.0000 C   0  0  0  0  0  0  0  0  0  0  0  0
    5.7272   -6.1354    0.0000 O   0  0  0  0  0  0  0  0  0  0  0  0
    6.8097   -4.2604    0.0000 O   0  0  0  0  0  0  0  0  0  0  0  0
  1  2  1  0  0  0  0
  2  3  2  0  0  0  0
  3  4  1  0  0  0  0
  4  5  1  0  0  0  0
  5  6  2  0  0  0  0
  6  7  1  0  0  0  0
  7  8  1  0  0  0  0
  6  9  1  0  0  0  0
  9 10  1  0  0  0  0
  9 11  2  0  0  0  0
 11 12  1  0  0  0  0
  4 12  2  0  0  0  0
  1 13  2  0  0  0  0
  1 14  1  0  0  0  0
M  END
> <#>
323

> <PLATE>
LAT005

> <ROW>
C

> <COL>
2

> <COORD>
C02

> <LATID>
LAT005C02

> <Supplier>
Sigma

> <Suplier_CAT#>
F-3500

> <Name>
Ferulic Acid

> <Concentration_(mM)>
2.5

> <IC50_(µM)>
inactive

> <Yeast_Active?>
-

> <Pubchem_CID>
709

$$$$
