
  -ISIS-  08130814242D

 20 22  0  0  0  0  0  0  0  0999 V2000
    4.0875   -3.8167    0.0000 C   0  0  0  0  0  0  0  0  0  0  0  0
    4.2000   -4.5542    0.0000 C   0  0  0  0  0  0  0  0  0  0  0  0
    3.3500   -3.6875    0.0000 C   0  0  0  0  0  0  0  0  0  0  0  0
    3.5292   -4.8875    0.0000 N   0  0  3  0  0  0  0  0  0  0  0  0
    3.0042   -4.3500    0.0000 C   0  0  0  0  0  0  0  0  0  0  0  0
    4.6292   -3.2875    0.0000 N   0  0  0  0  0  0  0  0  0  0  0  0
    2.2542   -4.3792    0.0000 C   0  0  0  0  0  0  0  0  0  0  0  0
    5.3500   -3.4875    0.0000 N   0  0  0  0  0  0  0  0  0  0  0  0
    2.9500   -3.0542    0.0000 C   0  0  0  0  0  0  0  0  0  0  0  0
    4.8667   -4.9042    0.0000 O   0  0  0  0  0  0  0  0  0  0  0  0
    5.8875   -2.9667    0.0000 C   0  0  0  0  0  0  0  0  0  0  0  0
    5.7000   -2.2375    0.0000 N   0  0  0  0  0  0  0  0  0  0  0  0
    3.4042   -5.6292    0.0000 C   0  0  0  0  0  0  0  0  0  0  0  0
    2.1917   -3.0875    0.0000 C   0  0  0  0  0  0  0  0  0  0  0  0
    1.8500   -3.7500    0.0000 C   0  0  0  0  0  0  0  0  0  0  0  0
    6.2292   -1.7042    0.0000 C   0  0  0  0  0  0  0  0  0  0  0  0
    6.6042   -3.1667    0.0000 C   0  0  0  0  0  0  0  0  0  0  0  0
    1.8000   -2.4500    0.0000 C   0  0  0  0  0  0  0  0  0  0  0  0
    6.9542   -1.9042    0.0000 C   0  0  0  0  0  0  0  0  0  0  0  0
    7.1500   -2.6375    0.0000 C   0  0  0  0  0  0  0  0  0  0  0  0
  2  1  1  0  0  0  0
  3  1  1  0  0  0  0
  4  2  1  0  0  0  0
  5  3  2  0  0  0  0
  6  1  2  0  0  0  0
  7  5  1  0  0  0  0
  8  6  1  0  0  0  0
  9  3  1  0  0  0  0
 10  2  2  0  0  0  0
 11  8  1  0  0  0  0
 12 11  1  0  0  0  0
 13  4  1  0  0  0  0
 14  9  2  0  0  0  0
 15 14  1  0  0  0  0
 16 12  2  0  0  0  0
 17 11  2  0  0  0  0
 18 14  1  0  0  0  0
 19 20  2  0  0  0  0
 20 17  1  0  0  0  0
  5  4  1  0  0  0  0
  7 15  2  0  0  0  0
 16 19  1  0  0  0  0
M  END
> <#>
2055

> <PLATE>
LAT026

> <ROW>
G

> <COL>
8

> <COORD>
G08

> <LATID>
LAT026G08

> <Supplier>
Chembridge

> <Suplier_CAT#>
5623753

> <Sec_Name>
189_C03

> <Concentration_(mM)>
2.5

> <IC50_(µM)>
inactive

> <Yeast_Active?>
-

> <Pubchem_CID>
NULL

$$$$
