
  -ISIS-  08130814242D

 31 35  0  0  0  0  0  0  0  0999 V2000
   -1.7458   -1.1375    0.0000 N   0  0  3  0  0  0  0  0  0  0  0  0
   -0.9000   -1.4792    0.0000 C   0  0  0  0  0  0  0  0  0  0  0  0
   -2.2458    0.2833    0.0000 C   0  0  0  0  0  0  0  0  0  0  0  0
   -1.4833   -0.2500    0.0000 C   0  0  0  0  0  0  0  0  0  0  0  0
   -2.6625   -1.1375    0.0000 N   0  0  0  0  0  0  0  0  0  0  0  0
   -2.9708   -0.2500    0.0000 C   0  0  0  0  0  0  0  0  0  0  0  0
   -0.1625   -0.9667    0.0000 N   0  0  0  0  0  0  0  0  0  0  0  0
   -0.6000   -2.3875    0.0000 S   0  0  0  0  0  0  0  0  0  0  0  0
    0.6000   -1.4792    0.0000 C   0  0  0  0  0  0  0  0  0  0  0  0
    0.3042   -2.3875    0.0000 C   0  0  0  0  0  0  0  0  0  0  0  0
   -2.2458    1.2208    0.0000 C   0  0  0  0  0  0  0  0  0  0  0  0
   -0.5625    0.0500    0.0000 O   0  0  0  0  0  0  0  0  0  0  0  0
   -3.8333    0.0500    0.0000 C   0  0  0  0  0  0  0  0  0  0  0  0
    1.7542    1.6958    0.0000 N   0  0  0  0  0  0  0  0  0  0  0  0
   -1.4333    1.6958    0.0000 N   0  0  0  0  0  0  0  0  0  0  0  0
    0.9667    1.2333    0.0000 C   0  0  0  0  0  0  0  0  0  0  0  0
    0.1792    1.6958    0.0000 C   0  0  0  0  0  0  0  0  0  0  0  0
   -0.6333    1.2333    0.0000 C   0  0  0  0  0  0  0  0  0  0  0  0
    1.5167   -1.3000    0.0000 C   0  0  0  0  0  0  0  0  0  0  0  0
    0.9375   -3.0792    0.0000 C   0  0  0  0  0  0  0  0  0  0  0  0
    2.5792    1.2333    0.0000 C   0  0  0  0  0  0  0  0  0  0  0  0
   -4.5333   -0.5542    0.0000 C   0  0  0  0  0  0  0  0  0  0  0  0
   -4.0000    0.9625    0.0000 C   0  0  0  0  0  0  0  0  0  0  0  0
    0.9542    0.2958    0.0000 C   0  0  0  0  0  0  0  0  0  0  0  0
    2.5667    0.2958    0.0000 C   0  0  0  0  0  0  0  0  0  0  0  0
    2.1292   -2.0167    0.0000 C   0  0  0  0  0  0  0  0  0  0  0  0
    1.8500   -2.9000    0.0000 C   0  0  0  0  0  0  0  0  0  0  0  0
   -5.4083   -0.2500    0.0000 C   0  0  0  0  0  0  0  0  0  0  0  0
   -4.8833    1.2625    0.0000 C   0  0  0  0  0  0  0  0  0  0  0  0
    1.7542   -0.1792    0.0000 C   0  0  0  0  0  0  0  0  0  0  0  0
   -5.5833    0.6458    0.0000 C   0  0  0  0  0  0  0  0  0  0  0  0
  2  1  1  0  0  0  0
  3  4  1  0  0  0  0
  4  1  1  0  0  0  0
  5  1  1  0  0  0  0
  6  5  1  0  0  0  0
  7  2  2  0  0  0  0
  8  2  1  0  0  0  0
  9  7  1  0  0  0  0
 10  8  1  0  0  0  0
 11  3  1  0  0  0  0
 12  4  2  0  0  0  0
 13  6  1  0  0  0  0
 14 16  2  0  0  0  0
 15 11  2  0  0  0  0
 16 17  1  0  0  0  0
 17 18  1  0  0  0  0
 18 15  1  0  0  0  0
 19  9  1  0  0  0  0
 20 10  1  0  0  0  0
 21 14  1  0  0  0  0
 22 13  2  0  0  0  0
 23 13  1  0  0  0  0
 24 16  1  0  0  0  0
 25 30  1  0  0  0  0
 26 19  2  0  0  0  0
 27 20  2  0  0  0  0
 28 22  1  0  0  0  0
 29 23  2  0  0  0  0
 30 24  2  0  0  0  0
 31 29  1  0  0  0  0
  6  3  2  0  0  0  0
  9 10  2  0  0  0  0
 26 27  1  0  0  0  0
 31 28  2  0  0  0  0
 25 21  2  0  0  0  0
M  END
> <#>
1811

> <PLATE>
LAT023

> <ROW>
C

> <COL>
8

> <COORD>
C08

> <LATID>
LAT023C08

> <Supplier>
Chembridge

> <Suplier_CAT#>
5634160

> <Name>
Novel

> <Sec_Name>
193_G02

> <Concentration_(mM)>
2.5

> <IC50_(µM)>
16

> <Yeast_Active?>
+

> <Pubchem_CID>
NULL

$$$$
