
  -ISIS-  08130814242D

 23 25  0  0  0  0  0  0  0  0999 V2000
   -1.1708   -1.7292    0.0000 N   0  0  0  0  0  0  0  0  0  0  0  0
   -0.3625   -1.2542    0.0000 C   0  0  3  0  0  0  0  0  0  0  0  0
   -1.1708    0.1500    0.0000 C   0  0  0  0  0  0  0  0  0  0  0  0
   -0.3625   -0.3167    0.0000 C   0  0  3  0  0  0  0  0  0  0  0  0
   -1.9833   -1.2542    0.0000 C   0  0  3  0  0  0  0  0  0  0  0  0
   -1.9833   -0.3167    0.0000 C   0  0  0  0  0  0  0  0  0  0  0  0
   -1.1708    1.0958    0.0000 N   0  0  0  0  0  0  0  0  0  0  0  0
    0.4500   -1.7292    0.0000 C   0  0  0  0  0  0  0  0  0  0  0  0
   -2.7958   -1.7292    0.0000 C   0  0  0  0  0  0  0  0  0  0  0  0
   -1.9833    1.5625    0.0000 O   0  0  0  0  0  0  0  0  0  0  0  0
    0.4667    0.1500    0.0000 C   0  0  0  0  0  0  0  0  0  0  0  0
    0.4500   -2.6667    0.0000 C   0  0  0  0  0  0  0  0  0  0  0  0
    1.2542   -1.2667    0.0000 C   0  0  0  0  0  0  0  0  0  0  0  0
   -2.7958   -2.6667    0.0000 C   0  0  0  0  0  0  0  0  0  0  0  0
   -3.6000   -1.2667    0.0000 C   0  0  0  0  0  0  0  0  0  0  0  0
    1.2875   -0.3167    0.0000 C   0  0  0  0  0  0  0  0  0  0  0  0
    2.1042    0.1500    0.0000 C   0  0  0  0  0  0  0  0  0  0  0  0
    2.0792   -1.7292    0.0000 C   0  0  0  0  0  0  0  0  0  0  0  0
    1.2542   -3.1375    0.0000 C   0  0  0  0  0  0  0  0  0  0  0  0
   -3.6000   -3.1375    0.0000 C   0  0  0  0  0  0  0  0  0  0  0  0
   -4.4208   -1.7292    0.0000 C   0  0  0  0  0  0  0  0  0  0  0  0
    2.0792   -2.6792    0.0000 C   0  0  0  0  0  0  0  0  0  0  0  0
   -4.4208   -2.6792    0.0000 C   0  0  0  0  0  0  0  0  0  0  0  0
  2  1  1  0  0  0  0
  3  6  1  0  0  0  0
  4  2  1  0  0  0  0
  5  1  1  0  0  0  0
  6  5  1  0  0  0  0
  7  3  2  0  0  0  0
  8  2  1  0  0  0  0
  9  5  1  0  0  0  0
 10  7  1  0  0  0  0
 11  4  1  0  0  0  0
 12  8  2  0  0  0  0
 13  8  1  0  0  0  0
 14  9  1  0  0  0  0
 15  9  2  0  0  0  0
 16 11  1  0  0  0  0
 17 16  1  0  0  0  0
 18 13  2  0  0  0  0
 19 12  1  0  0  0  0
 20 14  2  0  0  0  0
 21 15  1  0  0  0  0
 22 18  1  0  0  0  0
 23 21  2  0  0  0  0
  4  3  1  0  0  0  0
 23 20  1  0  0  0  0
 19 22  2  0  0  0  0
M  END
> <#>
1982

> <PLATE>
LAT025

> <ROW>
F

> <COL>
9

> <COORD>
F09

> <LATID>
LAT025F09

> <Supplier>
Chembridge

> <Suplier_CAT#>
5480405

> <Sec_Name>
141_D08

> <Concentration_(mM)>
2.5

> <IC50_(µM)>
inactive

> <Yeast_Active?>
-

> <Pubchem_CID>
1241534

$$$$
