
  -ISIS-  08130814242D

 28 31  0  0  0  0  0  0  0  0999 V2000
    3.4000   -3.2500    0.0000 C   0  0  0  0  0  0  0  0  0  0  0  0
    2.1042   -3.2500    0.0000 C   0  0  0  0  0  0  0  0  0  0  0  0
    2.1042   -4.0000    0.0000 C   0  0  0  0  0  0  0  0  0  0  0  0
    3.4000   -4.0000    0.0000 C   0  0  0  0  0  0  0  0  0  0  0  0
    2.7500   -2.8792    0.0000 C   0  0  3  0  0  0  0  0  0  0  0  0
    4.0542   -2.8667    0.0000 C   0  0  0  0  0  0  0  0  0  0  0  0
    2.7500   -4.3667    0.0000 N   0  0  0  0  0  0  0  0  0  0  0  0
    1.4542   -2.8792    0.0000 C   0  0  0  0  0  0  0  0  0  0  0  0
    4.7000   -3.2500    0.0000 O   0  0  0  0  0  0  0  0  0  0  0  0
    1.4542   -4.3667    0.0000 C   0  0  0  0  0  0  0  0  0  0  0  0
    0.8042   -4.0000    0.0000 C   0  0  3  0  0  0  0  0  0  0  0  0
    0.8042   -3.2500    0.0000 C   0  0  0  0  0  0  0  0  0  0  0  0
    4.0542   -2.1167    0.0000 O   0  0  0  0  0  0  0  0  0  0  0  0
    1.4542   -2.1292    0.0000 O   0  0  0  0  0  0  0  0  0  0  0  0
    2.7500   -2.1292    0.0000 C   0  0  0  0  0  0  0  0  0  0  0  0
    2.7500   -0.6292    0.0000 N   0  0  0  0  0  0  0  0  0  0  0  0
    4.0542   -4.3792    0.0000 C   0  0  0  0  0  0  0  0  0  0  0  0
    5.3500   -2.8667    0.0000 C   0  0  3  0  0  0  0  0  0  0  0  0
    0.0542   -3.9792    0.0000 C   0  0  0  0  0  0  0  0  0  0  0  0
    0.3167   -4.5792    0.0000 C   0  0  0  0  0  0  0  0  0  0  0  0
    2.1042   -1.0000    0.0000 C   0  0  0  0  0  0  0  0  0  0  0  0
    3.4000   -1.0000    0.0000 C   0  0  0  0  0  0  0  0  0  0  0  0
    2.1042   -1.7500    0.0000 C   0  0  0  0  0  0  0  0  0  0  0  0
    3.4000   -1.7500    0.0000 C   0  0  0  0  0  0  0  0  0  0  0  0
    6.0542   -3.1000    0.0000 C   0  0  0  0  0  0  0  0  0  0  0  0
    5.3500   -2.1167    0.0000 C   0  0  0  0  0  0  0  0  0  0  0  0
    6.0542   -1.8875    0.0000 C   0  0  0  0  0  0  0  0  0  0  0  0
    6.5000   -2.4875    0.0000 C   0  0  0  0  0  0  0  0  0  0  0  0
  2  5  1  0  0  0  0
  3  2  2  0  0  0  0
  4  1  2  0  0  0  0
  5  1  1  0  0  0  0
  6  1  1  0  0  0  0
  7  4  1  0  0  0  0
  8  2  1  0  0  0  0
  9  6  1  0  0  0  0
 10  3  1  0  0  0  0
 11 12  1  0  0  0  0
 12  8  1  0  0  0  0
 13  6  2  0  0  0  0
 14  8  2  0  0  0  0
 15  5  1  0  0  0  0
 16 22  2  0  0  0  0
 17  4  1  0  0  0  0
 18  9  1  0  0  0  0
 19 11  1  0  0  0  0
 20 11  1  0  0  0  0
 21 23  2  0  0  0  0
 22 24  1  0  0  0  0
 23 15  1  0  0  0  0
 24 15  2  0  0  0  0
 25 18  1  0  0  0  0
 26 18  1  0  0  0  0
 27 26  1  0  0  0  0
 28 25  1  0  0  0  0
  3  7  1  0  0  0  0
 16 21  1  0  0  0  0
 27 28  1  0  0  0  0
 10 11  1  0  0  0  0
M  END
> <#>
774

> <PLATE>
LAT010

> <ROW>
F

> <COL>
8

> <COORD>
F08

> <LATID>
LAT010F08

> <Supplier>
Chembridge

> <Suplier_CAT#>
5616984

> <Name>
Novel

> <Sec_Name>
185_B11

> <Concentration_(mM)>
2.5

> <IC50_(µM)>
57

> <Yeast_Active?>
-

> <Pubchem_CID>
1206087

$$$$
