
  -ISIS-  08130814242D

 17 18  0  0  0  0  0  0  0  0999 V2000
    4.5167    1.3708    0.0000 C   0  0  0  0  0  0  0  0  0  0  0  0
    4.5167    2.1208    0.0000 C   0  0  0  0  0  0  0  0  0  0  0  0
    3.8667    0.9958    0.0000 C   0  0  0  0  0  0  0  0  0  0  0  0
    3.2167    1.3708    0.0000 N   0  0  0  0  0  0  0  0  0  0  0  0
    1.9167    2.1208    0.0000 N   0  0  0  0  0  0  0  0  0  0  0  0
    5.1667    2.4958    0.0000 O   0  0  0  0  0  0  0  0  0  0  0  0
    1.9167    1.3708    0.0000 C   0  0  0  0  0  0  0  0  0  0  0  0
    2.5667    0.9958    0.0000 C   0  0  0  0  0  0  0  0  0  0  0  0
    3.8667    2.4958    0.0000 O   0  0  0  0  0  0  0  0  0  0  0  0
    5.1667    0.9958    0.0000 C   0  0  0  0  0  0  0  0  0  0  0  0
    1.2750    2.4958    0.0000 C   0  0  0  0  0  0  0  0  0  0  0  0
    3.8667    0.2458    0.0000 C   0  0  0  0  0  0  0  0  0  0  0  0
    1.2750    0.9958    0.0000 C   0  0  0  0  0  0  0  0  0  0  0  0
    5.1667    0.2458    0.0000 C   0  0  0  0  0  0  0  0  0  0  0  0
    0.6250    2.1208    0.0000 C   0  0  0  0  0  0  0  0  0  0  0  0
    4.5167   -0.1292    0.0000 C   0  0  0  0  0  0  0  0  0  0  0  0
    0.6250    1.3708    0.0000 C   0  0  0  0  0  0  0  0  0  0  0  0
  2  1  1  0  0  0  0
  3  1  1  0  0  0  0
  4  3  1  0  0  0  0
  5  7  2  0  0  0  0
  6  2  2  0  0  0  0
  7  8  1  0  0  0  0
  8  4  1  0  0  0  0
  9  2  1  0  0  0  0
 10  1  2  0  0  0  0
 11  5  1  0  0  0  0
 12  3  2  0  0  0  0
 13  7  1  0  0  0  0
 14 10  1  0  0  0  0
 15 17  1  0  0  0  0
 16 14  2  0  0  0  0
 17 13  2  0  0  0  0
 12 16  1  0  0  0  0
 11 15  2  0  0  0  0
M  END
> <#>
1459

> <PLATE>
LAT019

> <ROW>
C

> <COL>
4

> <COORD>
C04

> <LATID>
LAT019C04

> <Supplier>
Chembridge

> <Suplier_CAT#>
9012760

> <Name>
Novel

> <Concentration_(mM)>
2.5

> <IC50_(µM)>
>100

> <Yeast_Active?>
-

> <Pubchem_CID>
6457318

$$$$
