
  -ISIS-  08130814242D

 21 23  0  0  0  0  0  0  0  0999 V2000
   -1.7208    0.1833    0.0000 C   0  0  0  0  0  0  0  0  0  0  0  0
   -1.7208    1.5333    0.0000 C   0  0  0  0  0  0  0  0  0  0  0  0
   -2.9000   -0.4875    0.0000 C   0  0  0  0  0  0  0  0  0  0  0  0
    0.6000    1.5500    0.0000 N   0  0  0  0  0  0  0  0  0  0  0  0
   -0.5625    2.2083    0.0000 N   0  0  0  0  0  0  0  0  0  0  0  0
   -2.8833    2.2083    0.0000 O   0  0  0  0  0  0  0  0  0  0  0  0
    4.0542   -0.4500    0.0000 N   0  0  0  0  0  0  0  0  0  0  0  0
    1.7375    2.2208    0.0000 C   0  0  0  0  0  0  0  0  0  0  0  0
    2.8792    1.5708    0.0000 C   0  0  0  0  0  0  0  0  0  0  0  0
   -2.9000   -1.8375    0.0000 C   0  0  0  0  0  0  0  0  0  0  0  0
   -0.5458   -0.4875    0.0000 C   0  0  0  0  0  0  0  0  0  0  0  0
    2.8792    0.2000    0.0000 C   0  0  0  0  0  0  0  0  0  0  0  0
   -4.0833    0.1833    0.0000 C   0  0  0  0  0  0  0  0  0  0  0  0
   -0.5458   -1.8375    0.0000 C   0  0  0  0  0  0  0  0  0  0  0  0
    5.2375    0.2458    0.0000 C   0  0  0  0  0  0  0  0  0  0  0  0
   -1.7208   -2.5042    0.0000 C   0  0  0  0  0  0  0  0  0  0  0  0
    4.0542    2.2458    0.0000 C   0  0  0  0  0  0  0  0  0  0  0  0
   -4.0833   -2.5042    0.0000 C   0  0  0  0  0  0  0  0  0  0  0  0
    5.2375    1.5708    0.0000 C   0  0  0  0  0  0  0  0  0  0  0  0
   -5.2708   -0.4875    0.0000 C   0  0  0  0  0  0  0  0  0  0  0  0
   -5.2708   -1.8375    0.0000 C   0  0  0  0  0  0  0  0  0  0  0  0
  2  1  1  0  0  0  0
  3  1  2  0  0  0  0
  4  5  1  0  0  0  0
  5  2  1  0  0  0  0
  6  2  2  0  0  0  0
  7 12  2  0  0  0  0
  8  4  2  0  0  0  0
  9  8  1  0  0  0  0
 10  3  1  0  0  0  0
 11  1  1  0  0  0  0
 12  9  1  0  0  0  0
 13  3  1  0  0  0  0
 14 11  2  0  0  0  0
 15 19  2  0  0  0  0
 16 14  1  0  0  0  0
 17  9  2  0  0  0  0
 18 10  1  0  0  0  0
 19 17  1  0  0  0  0
 20 13  2  0  0  0  0
 21 20  1  0  0  0  0
 10 16  2  0  0  0  0
 18 21  2  0  0  0  0
 15  7  1  0  0  0  0
M  END
> <#>
1598

> <PLATE>
LAT020

> <ROW>
F

> <COL>
11

> <COORD>
F11

> <LATID>
LAT020F11

> <Supplier>
Chembridge

> <Suplier_CAT#>
5281586

> <Name>
Novel

> <Concentration_(mM)>
2.5

> <IC50_(µM)>
65

> <Yeast_Active?>
-

> <Pubchem_CID>
791780

$$$$
