
  -ISIS-  08130814242D

 23 25  0  0  0  0  0  0  0  0999 V2000
    2.0000   -6.8667    0.0000 N   0  0  3  0  0  0  0  0  0  0  0  0
    3.2042   -7.6000    0.0000 C   0  0  0  0  0  0  0  0  0  0  0  0
    2.0000   -5.4375    0.0000 C   0  0  0  0  0  0  0  0  0  0  0  0
    4.4667   -2.6542    0.0000 C   0  0  0  0  0  0  0  0  0  0  0  0
    3.2667   -4.7000    0.0000 C   0  0  0  0  0  0  0  0  0  0  0  0
    3.2667   -3.3500    0.0000 C   0  0  0  0  0  0  0  0  0  0  0  0
    6.9792   -2.6542    0.0000 N   0  0  0  0  0  0  0  0  0  0  0  0
    5.7375   -3.3500    0.0000 N   0  0  0  0  0  0  0  0  0  0  0  0
    4.5042   -6.9042    0.0000 O   0  0  0  0  0  0  0  0  0  0  0  0
    4.4667   -1.1500    0.0000 O   0  0  0  0  0  0  0  0  0  0  0  0
   12.1375   -2.6542    0.0000 N   0  0  0  0  0  0  0  0  0  0  0  0
    8.1500   -3.3500    0.0000 C   0  0  0  0  0  0  0  0  0  0  0  0
    9.5042   -2.6542    0.0000 C   0  0  0  0  0  0  0  0  0  0  0  0
    0.7667   -7.5542    0.0000 C   0  0  0  0  0  0  0  0  0  0  0  0
    3.2042   -8.9875    0.0000 C   0  0  0  0  0  0  0  0  0  0  0  0
   10.8667   -3.4542    0.0000 C   0  0  0  0  0  0  0  0  0  0  0  0
    0.8292   -4.7000    0.0000 C   0  0  0  0  0  0  0  0  0  0  0  0
    2.0000   -2.6542    0.0000 C   0  0  0  0  0  0  0  0  0  0  0  0
    0.7667   -8.9875    0.0000 C   0  0  0  0  0  0  0  0  0  0  0  0
    0.8292   -3.3500    0.0000 C   0  0  0  0  0  0  0  0  0  0  0  0
   12.1375   -1.1875    0.0000 C   0  0  0  0  0  0  0  0  0  0  0  0
    9.5042   -1.2292    0.0000 C   0  0  0  0  0  0  0  0  0  0  0  0
   10.8292   -0.5000    0.0000 C   0  0  0  0  0  0  0  0  0  0  0  0
  2  1  1  0  0  0  0
  3  1  1  0  0  0  0
  4  6  1  0  0  0  0
  5  3  2  0  0  0  0
  6  5  1  0  0  0  0
  7  8  1  0  0  0  0
  8  4  1  0  0  0  0
  9  2  2  0  0  0  0
 10  4  2  0  0  0  0
 11 16  2  0  0  0  0
 12  7  2  0  0  0  0
 13 12  1  0  0  0  0
 14  1  1  0  0  0  0
 15  2  1  0  0  0  0
 16 13  1  0  0  0  0
 17  3  1  0  0  0  0
 18 20  1  0  0  0  0
 19 14  1  0  0  0  0
 20 17  2  0  0  0  0
 21 23  2  0  0  0  0
 22 13  2  0  0  0  0
 23 22  1  0  0  0  0
 15 19  1  0  0  0  0
 18  6  2  0  0  0  0
 11 21  1  0  0  0  0
M  END
> <#>
1592

> <PLATE>
LAT020

> <ROW>
H

> <COL>
10

> <COORD>
H10

> <LATID>
LAT020H10

> <Supplier>
Chembridge

> <Suplier_CAT#>
5248875

> <Name>
Novel

> <Concentration_(mM)>
2.5

> <IC50_(µM)>
>100

> <Yeast_Active?>
-

> <Pubchem_CID>
790522

$$$$
