
  -ISIS-  08130814242D

 23 27  0  0  0  0  0  0  0  0999 V2000
    6.6417   -3.3042    0.0000 N   0  0  3  0  0  0  0  0  0  0  0  0
    5.8000   -3.2125    0.0000 C   0  0  0  0  0  0  0  0  0  0  0  0
    5.2500   -3.8250    0.0000 N   0  0  0  0  0  0  0  0  0  0  0  0
    7.1167   -4.0292    0.0000 C   0  0  0  0  0  0  0  0  0  0  0  0
    7.0250   -2.7667    0.0000 C   0  0  0  0  0  0  0  0  0  0  0  0
    7.6292   -3.1417    0.0000 C   0  0  3  0  0  0  0  0  0  0  0  0
    7.9375   -3.9375    0.0000 C   0  0  3  0  0  0  0  0  0  0  0  0
    4.5000   -3.4875    0.0000 C   0  0  0  0  0  0  0  0  0  0  0  0
    4.5750   -2.6625    0.0000 N   0  0  0  0  0  0  0  0  0  0  0  0
    5.3875   -2.4875    0.0000 N   0  0  0  0  0  0  0  0  0  0  0  0
    8.7542   -3.6542    0.0000 C   0  0  3  0  0  0  0  0  0  0  0  0
    8.5917   -2.8417    0.0000 C   0  0  3  0  0  0  0  0  0  0  0  0
    9.1292   -2.7917    0.0000 C   0  0  0  0  0  0  0  0  0  0  0  0
    9.0042   -2.1000    0.0000 C   0  0  0  0  0  0  0  0  0  0  0  0
    3.7875   -3.9000    0.0000 C   0  0  0  0  0  0  0  0  0  0  0  0
    9.4250   -3.7292    0.0000 C   0  0  0  0  0  0  0  0  0  0  0  0
    6.7792   -4.7042    0.0000 O   0  0  0  0  0  0  0  0  0  0  0  0
    6.6292   -2.2167    0.0000 O   0  0  0  0  0  0  0  0  0  0  0  0
    3.0875   -5.1417    0.0000 N   0  0  0  0  0  0  0  0  0  0  0  0
    3.7917   -4.7250    0.0000 C   0  0  0  0  0  0  0  0  0  0  0  0
    3.0667   -3.4917    0.0000 C   0  0  0  0  0  0  0  0  0  0  0  0
    2.3625   -4.7292    0.0000 C   0  0  0  0  0  0  0  0  0  0  0  0
    2.3625   -3.9042    0.0000 C   0  0  0  0  0  0  0  0  0  0  0  0
  2  1  1  0  0  0  0
  3  2  2  0  0  0  0
  4  1  1  0  0  0  0
  5  1  1  0  0  0  0
  6  5  1  0  0  0  0
  7  4  1  0  0  0  0
  8  3  1  0  0  0  0
  9 10  1  0  0  0  0
 10  2  1  0  0  0  0
 11  7  1  0  0  0  0
 12  6  1  0  0  0  0
 13 11  1  0  0  0  0
 14 12  1  0  0  0  0
 15  8  1  0  0  0  0
 16 12  1  0  0  0  0
 17  4  2  0  0  0  0
 18  5  2  0  0  0  0
 19 20  2  0  0  0  0
 20 15  1  0  0  0  0
 21 15  2  0  0  0  0
 22 23  2  0  0  0  0
 23 21  1  0  0  0  0
  6  7  1  0  0  0  0
  9  8  2  0  0  0  0
 16 11  1  0  0  0  0
 14 13  2  0  0  0  0
 22 19  1  0  0  0  0
M  END
> <#>
1699

> <PLATE>
LAT022

> <ROW>
C

> <COL>
4

> <COORD>
C04

> <LATID>
LAT022C04

> <Supplier>
Chembridge

> <Suplier_CAT#>
7953863

> <Name>
Novel

> <Concentration_(mM)>
2.5

> <IC50_(µM)>
inactive

> <Yeast_Active?>
-

> <Pubchem_CID>
NULL

$$$$
