
  -ISIS-  08130814242D

 18 19  0  0  0  0  0  0  0  0999 V2000
    3.9292   -1.4792    0.0000 C   0  0  0  0  0  0  0  0  0  0  0  0
    3.4042   -2.3792    0.0000 C   0  0  0  0  0  0  0  0  0  0  0  0
    3.4042   -0.5792    0.0000 C   0  0  0  0  0  0  0  0  0  0  0  0
    2.3667   -2.3792    0.0000 C   0  0  0  0  0  0  0  0  0  0  0  0
    2.3667   -0.5792    0.0000 C   0  0  0  0  0  0  0  0  0  0  0  0
    0.8042   -1.4792    0.0000 N   0  0  0  0  0  0  0  0  0  0  0  0
    1.8500   -1.4792    0.0000 C   0  0  0  0  0  0  0  0  0  0  0  0
    0.2875   -0.5792    0.0000 C   0  0  0  0  0  0  0  0  0  0  0  0
    4.9667   -1.4792    0.0000 N   0  0  0  0  0  0  0  0  0  0  0  0
    3.9292   -3.2792    0.0000 Cl  0  0  0  0  0  0  0  0  0  0  0  0
    3.9292    0.3458    0.0000 Cl  0  0  0  0  0  0  0  0  0  0  0  0
   -0.7708   -0.5792    0.0000 C   0  0  0  0  0  0  0  0  0  0  0  0
   -1.2958   -1.4792    0.0000 C   0  0  0  0  0  0  0  0  0  0  0  0
   -2.3333   -1.4792    0.0000 C   0  0  0  0  0  0  0  0  0  0  0  0
   -2.8500   -2.3792    0.0000 O   0  0  0  0  0  0  0  0  0  0  0  0
   -2.3333    0.3458    0.0000 C   0  0  0  0  0  0  0  0  0  0  0  0
   -1.2958    0.3458    0.0000 C   0  0  0  0  0  0  0  0  0  0  0  0
   -2.8500   -0.5792    0.0000 C   0  0  0  0  0  0  0  0  0  0  0  0
  2  1  1  0  0  0  0
  3  1  2  0  0  0  0
  4  2  2  0  0  0  0
  5  3  1  0  0  0  0
  6  7  1  0  0  0  0
  7  5  2  0  0  0  0
  8  6  2  0  0  0  0
  9  1  1  0  0  0  0
 10  2  1  0  0  0  0
 11  3  1  0  0  0  0
 12  8  1  0  0  0  0
 13 12  2  0  0  0  0
 14 13  1  0  0  0  0
 15 14  1  0  0  0  0
 16 17  2  0  0  0  0
 17 12  1  0  0  0  0
 18 16  1  0  0  0  0
  7  4  1  0  0  0  0
 14 18  2  0  0  0  0
M  END
> <#>
636

> <PLATE>
LAT008

> <ROW>
D

> <COL>
11

> <COORD>
D11

> <LATID>
LAT008D11

> <Supplier>
Chembridge

> <Suplier_CAT#>
5489203

> <Name>
Novel

> <Sec_Name>
147_G02

> <Concentration_(mM)>
2.5

> <IC50_(µM)>
>100

> <Yeast_Active?>
-

> <Pubchem_CID>
870607

$$$$
