
  -ISIS-  08130814242D

 23 25  0  0  0  0  0  0  0  0999 V2000
    5.2125   -2.4250    0.0000 N   0  0  0  0  0  0  0  0  0  0  0  0
    4.5667   -1.2917    0.0000 C   0  0  0  0  0  0  0  0  0  0  0  0
    4.5667   -2.0500    0.0000 C   0  0  0  0  0  0  0  0  0  0  0  0
    1.9542   -1.3000    0.0000 C   0  0  0  0  0  0  0  0  0  0  0  0
    5.2125   -0.9167    0.0000 C   0  0  0  0  0  0  0  0  0  0  0  0
    5.8667   -2.0500    0.0000 C   0  0  0  0  0  0  0  0  0  0  0  0
    0.6542   -1.3042    0.0000 N   0  0  3  0  0  0  0  0  0  0  0  0
    3.2625   -1.2917    0.0000 N   0  0  0  0  0  0  0  0  0  0  0  0
    5.8667   -1.2917    0.0000 C   0  0  0  0  0  0  0  0  0  0  0  0
    3.9125   -0.9167    0.0000 C   0  0  0  0  0  0  0  0  0  0  0  0
    2.6042   -0.9167    0.0000 N   0  0  0  0  0  0  0  0  0  0  0  0
    1.3042   -0.9250    0.0000 C   0  0  0  0  0  0  0  0  0  0  0  0
    1.9625   -2.0542    0.0000 O   0  0  0  0  0  0  0  0  0  0  0  0
   -0.6458   -2.0542    0.0000 O   0  0  0  0  0  0  0  0  0  0  0  0
    3.9125   -2.4250    0.0000 Cl  0  0  0  0  0  0  0  0  0  0  0  0
    0.0042   -0.9250    0.0000 C   0  0  0  0  0  0  0  0  0  0  0  0
    0.6625   -2.0542    0.0000 C   0  0  0  0  0  0  0  0  0  0  0  0
    0.0042   -2.4292    0.0000 C   0  0  0  0  0  0  0  0  0  0  0  0
   -0.6458   -1.3000    0.0000 C   0  0  0  0  0  0  0  0  0  0  0  0
    6.5125   -2.4250    0.0000 C   0  0  0  0  0  0  0  0  0  0  0  0
    6.5167   -0.9167    0.0000 C   0  0  0  0  0  0  0  0  0  0  0  0
    7.1667   -2.0542    0.0000 C   0  0  0  0  0  0  0  0  0  0  0  0
    7.1667   -1.3000    0.0000 C   0  0  0  0  0  0  0  0  0  0  0  0
  2  3  1  0  0  0  0
  3  1  2  0  0  0  0
  4 11  1  0  0  0  0
  5  9  1  0  0  0  0
  6  1  1  0  0  0  0
  7 12  1  0  0  0  0
  8 10  2  0  0  0  0
  9  6  1  0  0  0  0
 10  2  1  0  0  0  0
 11  8  1  0  0  0  0
 12  4  1  0  0  0  0
 13  4  2  0  0  0  0
 14 18  1  0  0  0  0
 15  3  1  0  0  0  0
 16  7  1  0  0  0  0
 17  7  1  0  0  0  0
 18 17  1  0  0  0  0
 19 16  1  0  0  0  0
 20  6  2  0  0  0  0
 21  9  2  0  0  0  0
 22 20  1  0  0  0  0
 23 22  2  0  0  0  0
  2  5  2  0  0  0  0
 21 23  1  0  0  0  0
 19 14  1  0  0  0  0
M  END
> <#>
1679

> <PLATE>
LAT021

> <ROW>
G

> <COL>
11

> <COORD>
G11

> <LATID>
LAT021G11

> <Supplier>
Chembridge

> <Suplier_CAT#>
5737052

> <Name>
Novel

> <Concentration_(mM)>
2.5

> <IC50_(µM)>
>100

> <Yeast_Active?>
-

> <Pubchem_CID>
761994

$$$$
