
  -ISIS-  08130814242D

 20 21  0  0  0  0  0  0  0  0999 V2000
    4.6750   -0.4167    0.0000 C   0  0  0  0  0  0  0  0  0  0  0  0
    5.4542    0.0333    0.0000 N   0  0  0  0  0  0  0  0  0  0  0  0
    3.9667    0.0000    0.0000 C   0  0  3  0  0  0  0  0  0  0  0  0
    3.2625   -0.4000    0.0000 O   0  0  0  0  0  0  0  0  0  0  0  0
    7.5667   -0.3792    0.0000 N   0  0  0  0  0  0  0  0  0  0  0  0
    4.6667   -1.3125    0.0000 O   0  0  0  0  0  0  0  0  0  0  0  0
    2.5542    0.0208    0.0000 C   0  0  0  0  0  0  0  0  0  0  0  0
    6.1542   -0.3667    0.0000 C   0  0  0  0  0  0  0  0  0  0  0  0
    6.8667    0.0333    0.0000 C   0  0  0  0  0  0  0  0  0  0  0  0
    1.1542    0.8500    0.0000 C   0  0  0  0  0  0  0  0  0  0  0  0
    0.4375    1.2708    0.0000 Br  0  0  0  0  0  0  0  0  0  0  0  0
    2.5667    0.8333    0.0000 C   0  0  0  0  0  0  0  0  0  0  0  0
    1.8417   -0.3792    0.0000 C   0  0  0  0  0  0  0  0  0  0  0  0
    1.1417    0.0333    0.0000 C   0  0  0  0  0  0  0  0  0  0  0  0
    1.8667    1.2500    0.0000 C   0  0  0  0  0  0  0  0  0  0  0  0
    8.2792    0.0333    0.0000 C   0  0  0  0  0  0  0  0  0  0  0  0
    3.9792    0.8250    0.0000 C   0  0  0  0  0  0  0  0  0  0  0  0
    6.8667    0.8500    0.0000 C   0  0  0  0  0  0  0  0  0  0  0  0
    8.2875    0.8500    0.0000 C   0  0  0  0  0  0  0  0  0  0  0  0
    7.5750    1.2583    0.0000 C   0  0  0  0  0  0  0  0  0  0  0  0
  2  1  1  0  0  0  0
  3  1  1  0  0  0  0
  4  3  1  0  0  0  0
  5  9  1  0  0  0  0
  6  1  2  0  0  0  0
  7  4  1  0  0  0  0
  8  2  1  0  0  0  0
  9  8  1  0  0  0  0
 10 14  2  0  0  0  0
 11 10  1  0  0  0  0
 12  7  1  0  0  0  0
 13  7  2  0  0  0  0
 14 13  1  0  0  0  0
 15 12  2  0  0  0  0
 16  5  2  0  0  0  0
 17  3  1  0  0  0  0
 18  9  2  0  0  0  0
 19 20  2  0  0  0  0
 20 18  1  0  0  0  0
 10 15  1  0  0  0  0
 16 19  1  0  0  0  0
M  END
> <#>
1509

> <PLATE>
LAT019

> <ROW>
E

> <COL>
10

> <COORD>
E10

> <LATID>
LAT019E10

> <Supplier>
Chembridge

> <Suplier_CAT#>
7779433

> <Name>
Novel

> <Concentration_(mM)>
2.5

> <IC50_(µM)>
>100

> <Yeast_Active?>
-

> <Pubchem_CID>
2953636

$$$$
