
  -ISIS-  08130814242D

 18 19  0  0  0  0  0  0  0  0999 V2000
   -2.3125   -3.2292    0.0000 S   0  0  3  0  0  0  0  0  0  0  0  0
   -1.5625   -3.2292    0.0000 N   0  0  3  0  0  0  0  0  0  0  0  0
   -1.1958   -2.5792    0.0000 C   0  0  0  0  0  0  0  0  0  0  0  0
   -1.1833   -3.8792    0.0000 C   0  0  0  0  0  0  0  0  0  0  0  0
   -3.0500   -3.2375    0.0000 C   0  0  0  0  0  0  0  0  0  0  0  0
   -2.3125   -3.9875    0.0000 O   0  0  0  0  0  0  0  0  0  0  0  0
   -2.3125   -2.4792    0.0000 O   0  0  0  0  0  0  0  0  0  0  0  0
   -0.0625   -3.2167    0.0000 O   0  0  0  0  0  0  0  0  0  0  0  0
   -0.4333   -3.8792    0.0000 C   0  0  3  0  0  0  0  0  0  0  0  0
   -0.4458   -2.5792    0.0000 C   0  0  3  0  0  0  0  0  0  0  0  0
   -3.4458   -2.5792    0.0000 C   0  0  0  0  0  0  0  0  0  0  0  0
   -0.0500   -4.5167    0.0000 C   0  0  0  0  0  0  0  0  0  0  0  0
   -0.0708   -1.9292    0.0000 C   0  0  0  0  0  0  0  0  0  0  0  0
   -3.0625   -1.9292    0.0000 C   0  0  0  0  0  0  0  0  0  0  0  0
   -4.1958   -2.5792    0.0000 C   0  0  0  0  0  0  0  0  0  0  0  0
   -3.4333   -1.2792    0.0000 C   0  0  0  0  0  0  0  0  0  0  0  0
   -4.5625   -1.9292    0.0000 C   0  0  0  0  0  0  0  0  0  0  0  0
   -4.1833   -1.2875    0.0000 C   0  0  0  0  0  0  0  0  0  0  0  0
  2  1  1  0  0  0  0
  3  2  1  0  0  0  0
  4  2  1  0  0  0  0
  5  1  1  0  0  0  0
  6  1  2  0  0  0  0
  7  1  2  0  0  0  0
  8  9  1  0  0  0  0
  9  4  1  0  0  0  0
 10  3  1  0  0  0  0
 11  5  1  0  0  0  0
 12  9  1  0  0  0  0
 13 10  1  0  0  0  0
 14 11  2  0  0  0  0
 15 11  1  0  0  0  0
 16 14  1  0  0  0  0
 17 15  2  0  0  0  0
 18 17  1  0  0  0  0
  8 10  1  0  0  0  0
 18 16  2  0  0  0  0
M  END
> <#>
2000

> <PLATE>
LAT025

> <ROW>
H

> <COL>
11

> <COORD>
H11

> <LATID>
LAT025H11

> <Supplier>
Chembridge

> <Suplier_CAT#>
5572449

> <Sec_Name>
175_C10

> <Concentration_(mM)>
2.5

> <IC50_(µM)>
inactive

> <Yeast_Active?>
-

> <Pubchem_CID>
743651

$$$$
