
  -ISIS-  08130814242D

 11 11  0  0  0  0  0  0  0  0999 V2000
    5.2936   -3.6723    0.0000 C   0  0  0  0  0  0  0  0  0  0  0  0
    6.1859   -3.6723    0.0000 C   0  0  0  0  0  0  0  0  0  0  0  0
    6.6321   -2.8996    0.0000 C   0  0  0  0  0  0  0  0  0  0  0  0
    7.5244   -2.8996    0.0000 C   0  0  0  0  0  0  0  0  0  0  0  0
    7.9706   -3.6723    0.0000 C   0  0  0  0  0  0  0  0  0  0  0  0
    7.5244   -4.4451    0.0000 C   0  0  0  0  0  0  0  0  0  0  0  0
    6.6321   -4.4451    0.0000 C   0  0  0  0  0  0  0  0  0  0  0  0
    4.8475   -4.4451    0.0000 O   0  0  0  0  0  0  0  0  0  0  0  0
    4.8475   -2.8996    0.0000 N   0  0  0  0  0  0  0  0  0  0  0  0
    8.8629   -3.6723    0.0000 C   0  0  0  0  0  0  0  0  0  0  0  0
    7.9706   -2.1268    0.0000 N   0  0  0  0  0  0  0  0  0  0  0  0
  1  2  1  0  0  0  0
  2  3  1  0  0  0  0
  3  4  2  0  0  0  0
  4  5  1  0  0  0  0
  5  6  2  0  0  0  0
  6  7  1  0  0  0  0
  2  7  2  0  0  0  0
  1  8  2  0  0  0  0
  1  9  1  0  0  0  0
  5 10  1  0  0  0  0
  4 11  1  0  0  0  0
M  END
> <#>
509

> <PLATE>
LAT007

> <ROW>
E

> <COL>
5

> <COORD>
E05

> <LATID>
LAT007E05

> <Supplier>
Aldrich

> <Suplier_CAT#>
54,825-1

> <Name>
3-Amino-4-Methylbenzamide

> <Concentration_(mM)>
2.5

> <IC50_(µM)>
inactive

> <Yeast_Active?>
-

> <Pubchem_CID>
88043

$$$$
