
  -ISIS-  08130814242D

 17 18  0  0  0  0  0  0  0  0999 V2000
    3.8667    1.2333    0.0000 C   0  0  0  0  0  0  0  0  0  0  0  0
    3.8875   -0.0875    0.0000 C   0  0  0  0  0  0  0  0  0  0  0  0
    1.6042    1.1958    0.0000 N   0  0  0  0  0  0  0  0  0  0  0  0
    2.7292    1.8708    0.0000 N   0  0  0  0  0  0  0  0  0  0  0  0
    5.0042    1.9125    0.0000 O   0  0  0  0  0  0  0  0  0  0  0  0
    2.7875   -2.0667    0.0000 N   0  0  0  0  0  0  0  0  0  0  0  0
   -1.8333   -0.8292    0.0000 N   0  0  0  0  0  0  0  0  0  0  0  0
    0.4667    1.8333    0.0000 C   0  0  0  0  0  0  0  0  0  0  0  0
   -0.6958    1.1500    0.0000 C   0  0  0  0  0  0  0  0  0  0  0  0
    2.7667   -0.7500    0.0000 C   0  0  0  0  0  0  0  0  0  0  0  0
   -0.6958   -0.1667    0.0000 C   0  0  0  0  0  0  0  0  0  0  0  0
    5.0292   -0.7292    0.0000 C   0  0  0  0  0  0  0  0  0  0  0  0
    3.9292   -2.6875    0.0000 C   0  0  0  0  0  0  0  0  0  0  0  0
   -2.9500   -0.1667    0.0000 C   0  0  0  0  0  0  0  0  0  0  0  0
   -1.8333    1.7958    0.0000 C   0  0  0  0  0  0  0  0  0  0  0  0
    5.0500   -2.0292    0.0000 C   0  0  0  0  0  0  0  0  0  0  0  0
   -2.9500    1.1500    0.0000 C   0  0  0  0  0  0  0  0  0  0  0  0
  2  1  1  0  0  0  0
  3  4  1  0  0  0  0
  4  1  1  0  0  0  0
  5  1  2  0  0  0  0
  6 10  1  0  0  0  0
  7 11  2  0  0  0  0
  8  3  2  0  0  0  0
  9  8  1  0  0  0  0
 10  2  2  0  0  0  0
 11  9  1  0  0  0  0
 12  2  1  0  0  0  0
 13 16  1  0  0  0  0
 14 17  2  0  0  0  0
 15  9  2  0  0  0  0
 16 12  2  0  0  0  0
 17 15  1  0  0  0  0
  6 13  2  0  0  0  0
 14  7  1  0  0  0  0
M  END
> <#>
1629

> <PLATE>
LAT021

> <ROW>
E

> <COL>
5

> <COORD>
E05

> <LATID>
LAT021E05

> <Supplier>
Chembridge

> <Suplier_CAT#>
5111044

> <Name>
Novel

> <Concentration_(mM)>
2.5

> <IC50_(µM)>
inactive

> <Yeast_Active?>
-

> <Pubchem_CID>
668431

$$$$
