
  -ISIS-  08130814242D

 21 23  0  0  0  0  0  0  0  0999 V2000
    1.6417    1.1958    0.0000 N   0  0  3  0  0  0  0  0  0  0  0  0
    0.4542    0.9458    0.0000 N   0  0  0  0  0  0  0  0  0  0  0  0
    0.8292    0.2958    0.0000 N   0  0  0  0  0  0  0  0  0  0  0  0
    4.2417    2.6958    0.0000 C   0  0  0  0  0  0  0  0  0  0  0  0
    0.9542    1.5000    0.0000 C   0  0  0  0  0  0  0  0  0  0  0  0
    1.5667    0.4500    0.0000 C   0  0  0  0  0  0  0  0  0  0  0  0
    4.8917    2.3208    0.0000 N   0  0  0  0  0  0  0  0  0  0  0  0
    2.2917    1.5708    0.0000 C   0  0  0  0  0  0  0  0  0  0  0  0
    3.5917    2.3208    0.0000 C   0  0  0  0  0  0  0  0  0  0  0  0
    6.1917    1.5708    0.0000 N   0  0  0  0  0  0  0  0  0  0  0  0
    4.2417    3.4458    0.0000 O   0  0  0  0  0  0  0  0  0  0  0  0
    2.2917    2.3208    0.0000 C   0  0  0  0  0  0  0  0  0  0  0  0
    2.9417    1.1958    0.0000 C   0  0  0  0  0  0  0  0  0  0  0  0
    2.9417    2.6958    0.0000 C   0  0  0  0  0  0  0  0  0  0  0  0
    3.5917    1.5708    0.0000 C   0  0  0  0  0  0  0  0  0  0  0  0
    5.5417    2.6958    0.0000 C   0  0  0  0  0  0  0  0  0  0  0  0
    6.1917    2.3208    0.0000 C   0  0  0  0  0  0  0  0  0  0  0  0
    6.8375    1.1958    0.0000 C   0  0  0  0  0  0  0  0  0  0  0  0
    6.8375    2.6958    0.0000 C   0  0  0  0  0  0  0  0  0  0  0  0
    7.4875    1.5708    0.0000 C   0  0  0  0  0  0  0  0  0  0  0  0
    7.4875    2.3208    0.0000 C   0  0  0  0  0  0  0  0  0  0  0  0
  2  5  2  0  0  0  0
  3  6  2  0  0  0  0
  4  9  1  0  0  0  0
  5  1  1  0  0  0  0
  6  1  1  0  0  0  0
  7  4  1  0  0  0  0
  8  1  1  0  0  0  0
  9 15  1  0  0  0  0
 10 17  1  0  0  0  0
 11  4  2  0  0  0  0
 12  8  2  0  0  0  0
 13  8  1  0  0  0  0
 14 12  1  0  0  0  0
 15 13  2  0  0  0  0
 16  7  1  0  0  0  0
 17 16  1  0  0  0  0
 18 10  2  0  0  0  0
 19 17  2  0  0  0  0
 20 21  2  0  0  0  0
 21 19  1  0  0  0  0
  3  2  1  0  0  0  0
 14  9  2  0  0  0  0
 18 20  1  0  0  0  0
M  END
> <#>
1444

> <PLATE>
LAT019

> <ROW>
D

> <COL>
2

> <COORD>
D02

> <LATID>
LAT019D02

> <Supplier>
Chembridge

> <Suplier_CAT#>
9016242

> <Name>
Novel

> <Concentration_(mM)>
2.5

> <IC50_(µM)>
>100

> <Yeast_Active?>
-

> <Pubchem_CID>
6457767

$$$$
