
  -ISIS-  08130814242D

 21 22  0  0  0  0  0  0  0  0999 V2000
    1.0500    1.5500    0.0000 C   0  0  0  0  0  0  0  0  0  0  0  0
    1.3875    0.6625    0.0000 C   0  0  0  0  0  0  0  0  0  0  0  0
   -0.1958    0.6125    0.0000 C   0  0  0  0  0  0  0  0  0  0  0  0
    0.1000    1.5500    0.0000 C   0  0  0  0  0  0  0  0  0  0  0  0
    0.6042    0.0625    0.0000 S   0  0  0  0  0  0  0  0  0  0  0  0
   -1.0958    0.2958    0.0000 C   0  0  0  0  0  0  0  0  0  0  0  0
    1.5875    2.3458    0.0000 C   0  0  0  0  0  0  0  0  0  0  0  0
   -1.8208    0.9125    0.0000 N   0  0  0  0  0  0  0  0  0  0  0  0
   -1.2625   -0.6500    0.0000 O   0  0  0  0  0  0  0  0  0  0  0  0
    2.3167    0.4208    0.0000 N   0  0  0  0  0  0  0  0  0  0  0  0
    2.5542    2.2708    0.0000 O   0  0  0  0  0  0  0  0  0  0  0  0
   -0.4500    2.3458    0.0000 C   0  0  0  0  0  0  0  0  0  0  0  0
   -2.7208    0.5958    0.0000 C   0  0  0  0  0  0  0  0  0  0  0  0
    1.1667    3.2125    0.0000 O   0  0  0  0  0  0  0  0  0  0  0  0
    0.1792    3.2708    0.0000 C   0  0  0  0  0  0  0  0  0  0  0  0
   -2.8958   -0.3667    0.0000 C   0  0  0  0  0  0  0  0  0  0  0  0
   -3.4708    1.2208    0.0000 C   0  0  0  0  0  0  0  0  0  0  0  0
   -0.2958    4.0917    0.0000 C   0  0  0  0  0  0  0  0  0  0  0  0
   -4.3833    0.8833    0.0000 C   0  0  0  0  0  0  0  0  0  0  0  0
   -3.8125   -0.7000    0.0000 C   0  0  0  0  0  0  0  0  0  0  0  0
   -4.5500   -0.0667    0.0000 C   0  0  0  0  0  0  0  0  0  0  0  0
  2  1  2  0  0  0  0
  3  4  2  0  0  0  0
  4  1  1  0  0  0  0
  5  2  1  0  0  0  0
  6  3  1  0  0  0  0
  7  1  1  0  0  0  0
  8  6  1  0  0  0  0
  9  6  2  0  0  0  0
 10  2  1  0  0  0  0
 11  7  2  0  0  0  0
 12  4  1  0  0  0  0
 13  8  1  0  0  0  0
 14  7  1  0  0  0  0
 15 14  1  0  0  0  0
 16 13  2  0  0  0  0
 17 13  1  0  0  0  0
 18 15  1  0  0  0  0
 19 17  2  0  0  0  0
 20 16  1  0  0  0  0
 21 19  1  0  0  0  0
  5  3  1  0  0  0  0
 20 21  2  0  0  0  0
M  END
> <#>
630

> <PLATE>
LAT008

> <ROW>
F

> <COL>
10

> <COORD>
F10

> <LATID>
LAT008F10

> <Supplier>
Chembridge

> <Suplier_CAT#>
5541189

> <Name>
Novel

> <Sec_Name>
157_C10

> <Concentration_(mM)>
2.5

> <IC50_(µM)>
26

> <Yeast_Active?>
-

> <Pubchem_CID>
698230

$$$$
