
  -ISIS-  08130814242D

  8  7  0  0  0  0  0  0  0  0999 V2000
    2.9292   -1.7792    0.0000 N   0  3  0  0  0  0  0  0  0  0  0  0
    5.0750   -1.3667    0.0000 C   0  0  0  0  0  0  0  0  0  0  0  0
    4.3625   -1.7792    0.0000 C   0  0  0  0  0  0  0  0  0  0  0  0
    2.2167   -1.3625    0.0000 O   0  5  0  0  0  0  0  0  0  0  0  0
    2.9292   -2.6000    0.0000 O   0  0  0  0  0  0  0  0  0  0  0  0
    3.6417   -1.3667    0.0000 C   0  0  0  0  0  0  0  0  0  0  0  0
    5.0750   -0.5417    0.0000 O   0  0  0  0  0  0  0  0  0  0  0  0
    5.7875   -1.7792    0.0000 O   0  0  0  0  0  0  0  0  0  0  0  0
  2  3  1  0  0  0  0
  3  6  1  0  0  0  0
  4  1  1  0  0  0  0
  5  1  2  0  0  0  0
  6  1  1  0  0  0  0
  7  2  2  0  0  0  0
  8  2  1  0  0  0  0
M  CHG  2   1   1   4  -1
M  END
> <#>
158

> <PLATE>
LAT002

> <ROW>
F

> <COL>
11

> <COORD>
F11

> <LATID>
LAT002F11

> <Supplier>
Microsource

> <Suplier_CAT#>
01504206

> <Name>
Bovinocidin (3-Nitropropionic Acid)

> <Concentration_(mM)>
2.5

> <IC50_(µM)>
4.6

> <Yeast_Active?>
-

> <Pubchem_CID>
1678

> <Description>
Antineoplastic

> <Source>
Natural Product; ex Aspergillus, Streptomyces spp & other microorganisms

$$$$
