
  -ISIS-  08130814242D

 18 20  0  0  0  0  0  0  0  0999 V2000
    9.0042   -2.5500    0.0000 N   0  0  3  0  0  0  0  0  0  0  0  0
    9.6542   -2.1792    0.0000 C   0  0  0  0  0  0  0  0  0  0  0  0
    8.3542   -2.1792    0.0000 C   0  0  0  0  0  0  0  0  0  0  0  0
    8.3542   -1.4292    0.0000 N   0  0  0  0  0  0  0  0  0  0  0  0
    9.6542   -1.4292    0.0000 N   0  0  0  0  0  0  0  0  0  0  0  0
    9.0042   -3.3000    0.0000 C   0  0  0  0  0  0  0  0  0  0  0  0
   10.3042   -2.5500    0.0000 N   0  0  0  0  0  0  0  0  0  0  0  0
    9.6542   -3.6792    0.0000 C   0  0  0  0  0  0  0  0  0  0  0  0
   10.3042   -3.3000    0.0000 C   0  0  0  0  0  0  0  0  0  0  0  0
    7.7042   -2.5500    0.0000 C   0  0  0  0  0  0  0  0  0  0  0  0
    7.0542   -2.1792    0.0000 C   0  0  0  0  0  0  0  0  0  0  0  0
    7.7042   -3.3000    0.0000 C   0  0  0  0  0  0  0  0  0  0  0  0
    8.3542   -3.6792    0.0000 C   0  0  0  0  0  0  0  0  0  0  0  0
    6.4042   -2.5500    0.0000 C   0  0  0  0  0  0  0  0  0  0  0  0
    7.0542   -3.6792    0.0000 C   0  0  0  0  0  0  0  0  0  0  0  0
    6.4042   -3.3000    0.0000 C   0  0  0  0  0  0  0  0  0  0  0  0
   10.9542   -3.6792    0.0000 C   0  0  0  0  0  0  0  0  0  0  0  0
    5.7542   -3.6792    0.0000 C   0  0  0  0  0  0  0  0  0  0  0  0
  2  1  1  0  0  0  0
  3  1  1  0  0  0  0
  4  3  2  0  0  0  0
  5  2  2  0  0  0  0
  6  1  1  0  0  0  0
  7  2  1  0  0  0  0
  8  6  2  0  0  0  0
  9  8  1  0  0  0  0
 10  3  1  0  0  0  0
 11 10  1  0  0  0  0
 12 10  2  0  0  0  0
 13  6  1  0  0  0  0
 14 11  2  0  0  0  0
 15 12  1  0  0  0  0
 16 15  2  0  0  0  0
 17  9  1  0  0  0  0
 18 16  1  0  0  0  0
  4  5  1  0  0  0  0
  9  7  2  0  0  0  0
 14 16  1  0  0  0  0
M  END
> <#>
1803

> <PLATE>
LAT023

> <ROW>
C

> <COL>
7

> <COORD>
C07

> <LATID>
LAT023C07

> <Supplier>
Chembridge

> <Suplier_CAT#>
5625995

> <Name>
Novel

> <Sec_Name>
190_A06

> <Concentration_(mM)>
2.5

> <IC50_(µM)>
3.1

> <Yeast_Active?>
-

> <Pubchem_CID>
1240084

$$$$
