
  -ISIS-  08130814242D

 30 33  0  0  0  0  0  0  0  0999 V2000
    5.4500   -3.9042    0.0000 C   0  0  0  0  0  0  0  0  0  0  0  0
    5.1000   -3.2375    0.0000 C   0  0  0  0  0  0  0  0  0  0  0  0
    6.7500   -3.5667    0.0000 C   0  0  3  0  0  0  0  0  0  0  0  0
    5.0375   -4.5375    0.0000 N   0  0  0  0  0  0  0  0  0  0  0  0
    6.1792   -4.0542    0.0000 O   0  0  0  0  0  0  0  0  0  0  0  0
    7.4292   -3.8875    0.0000 C   0  0  0  0  0  0  0  0  0  0  0  0
    6.7375   -2.8292    0.0000 N   0  0  0  0  0  0  0  0  0  0  0  0
    4.3542   -3.2000    0.0000 N   0  0  0  0  0  0  0  0  0  0  0  0
    5.4042   -2.5542    0.0000 C   0  0  0  0  0  0  0  0  0  0  0  0
    4.2875   -4.5000    0.0000 C   0  0  0  0  0  0  0  0  0  0  0  0
    6.1375   -2.3667    0.0000 C   0  0  0  0  0  0  0  0  0  0  0  0
    3.9500   -3.8375    0.0000 N   0  0  0  0  0  0  0  0  0  0  0  0
    8.0375   -3.4500    0.0000 C   0  0  0  0  0  0  0  0  0  0  0  0
    7.5000   -4.6292    0.0000 C   0  0  0  0  0  0  0  0  0  0  0  0
    3.8792   -5.1292    0.0000 S   0  0  0  0  0  0  0  0  0  0  0  0
    8.7167   -3.7542    0.0000 C   0  0  0  0  0  0  0  0  0  0  0  0
    8.1875   -4.9375    0.0000 C   0  0  0  0  0  0  0  0  0  0  0  0
    8.8000   -4.5000    0.0000 C   0  0  0  0  0  0  0  0  0  0  0  0
    4.8792   -2.0167    0.0000 C   0  0  0  0  0  0  0  0  0  0  0  0
    7.9667   -2.7000    0.0000 O   0  0  0  0  0  0  0  0  0  0  0  0
    8.2542   -5.6875    0.0000 O   0  0  0  0  0  0  0  0  0  0  0  0
    6.3500   -1.6500    0.0000 C   0  0  0  0  0  0  0  0  0  0  0  0
    3.1292   -5.1000    0.0000 C   0  0  0  0  0  0  0  0  0  0  0  0
    8.5667   -2.2542    0.0000 C   0  0  0  0  0  0  0  0  0  0  0  0
    7.6500   -6.1167    0.0000 C   0  0  0  0  0  0  0  0  0  0  0  0
    2.7875   -4.4292    0.0000 C   0  0  0  0  0  0  0  0  0  0  0  0
    2.0500   -4.3792    0.0000 C   0  0  0  0  0  0  0  0  0  0  0  0
    5.0875   -1.3000    0.0000 C   0  0  0  0  0  0  0  0  0  0  0  0
    5.8167   -1.1042    0.0000 C   0  0  0  0  0  0  0  0  0  0  0  0
    1.7000   -3.7167    0.0000 C   0  0  0  0  0  0  0  0  0  0  0  0
  2  1  1  0  0  0  0
  3  5  1  0  0  0  0
  4  1  2  0  0  0  0
  5  1  1  0  0  0  0
  6  3  1  0  0  0  0
  7  3  1  0  0  0  0
  8  2  2  0  0  0  0
  9  2  1  0  0  0  0
 10  4  1  0  0  0  0
 11  9  2  0  0  0  0
 12 10  2  0  0  0  0
 13  6  2  0  0  0  0
 14  6  1  0  0  0  0
 15 10  1  0  0  0  0
 16 13  1  0  0  0  0
 17 14  2  0  0  0  0
 18 17  1  0  0  0  0
 19  9  1  0  0  0  0
 20 13  1  0  0  0  0
 21 17  1  0  0  0  0
 22 11  1  0  0  0  0
 23 15  1  0  0  0  0
 24 20  1  0  0  0  0
 25 21  1  0  0  0  0
 26 23  1  0  0  0  0
 27 26  1  0  0  0  0
 28 19  2  0  0  0  0
 29 28  1  0  0  0  0
 30 27  1  0  0  0  0
 12  8  1  0  0  0  0
 11  7  1  0  0  0  0
 29 22  2  0  0  0  0
 16 18  2  0  0  0  0
M  END
> <#>
902

> <PLATE>
LAT012

> <ROW>
F

> <COL>
4

> <COORD>
F04

> <LATID>
LAT012F04

> <Supplier>
Chembridge

> <Suplier_CAT#>
5679475

> <Name>
Novel

> <Sec_Name>
215_A05

> <Concentration_(mM)>
2.5

> <IC50_(µM)>
24

> <Yeast_Active?>
-

> <Pubchem_CID>
6405770

$$$$
