
  -ISIS-  08130814242D

  9  9  0  0  0  0  0  0  0  0999 V2000
    6.1185   -3.0291    0.0000 N   0  0  3  0  0  0  0  0  0  0  0  0
    6.8533   -2.0178    0.0000 N   0  0  0  0  0  0  0  0  0  0  0  0
    8.0421   -2.4041    0.0000 C   0  0  0  0  0  0  0  0  0  0  0  0
    8.0421   -3.6541    0.0000 N   0  0  0  0  0  0  0  0  0  0  0  0
    6.8533   -4.0403    0.0000 C   0  0  0  0  0  0  0  0  0  0  0  0
    9.0533   -1.6693    0.0000 N   0  0  0  0  0  0  0  0  0  0  0  0
    4.8685   -3.0291    0.0000 C   0  0  0  0  0  0  0  0  0  0  0  0
    4.2435   -4.1116    0.0000 O   0  0  0  0  0  0  0  0  0  0  0  0
    4.2435   -1.9465    0.0000 O   0  0  0  0  0  0  0  0  0  0  0  0
  1  2  1  0  0  0  0
  2  3  2  0  0  0  0
  3  4  1  0  0  0  0
  4  5  2  0  0  0  0
  1  5  1  0  0  0  0
  3  6  1  0  0  0  0
  7  8  2  0  0  0  0
  7  9  1  0  0  0  0
  1  7  1  0  0  0  0
M  END
> <#>
296

> <PLATE>
LAT004

> <ROW>
H

> <COL>
8

> <COORD>
H08

> <LATID>
LAT004H08

> <Supplier>
Aldrich

> <Suplier_CAT#>
282073

> <Name>
3-Amino-1,2,4-Triazole Carboxylic Acid

> <Concentration_(mM)>
2.5

> <IC50_(µM)>
99

> <Yeast_Active?>
-

> <Pubchem_CID>
NULL

$$$$
