
  -ISIS-  08130814242D

 19 21  0  0  0  0  0  0  0  0999 V2000
    4.0417   -1.3917    0.0000 C   0  0  0  0  0  0  0  0  0  0  0  0
    4.7625   -2.6375    0.0000 N   0  0  3  0  0  0  0  0  0  0  0  0
    3.3375   -2.6375    0.0000 C   0  0  0  0  0  0  0  0  0  0  0  0
    4.7625   -1.8042    0.0000 C   0  0  0  0  0  0  0  0  0  0  0  0
    4.0500   -3.0417    0.0000 C   0  0  0  0  0  0  0  0  0  0  0  0
    3.3292   -1.8125    0.0000 C   0  0  0  0  0  0  0  0  0  0  0  0
    4.0417   -3.8667    0.0000 C   0  0  0  0  0  0  0  0  0  0  0  0
    4.0417   -0.5667    0.0000 C   0  0  0  0  0  0  0  0  0  0  0  0
    2.6250   -3.0417    0.0000 C   0  0  0  0  0  0  0  0  0  0  0  0
    5.4750   -3.0500    0.0000 C   0  0  3  0  0  0  0  0  0  0  0  0
    3.3292   -4.2792    0.0000 C   0  0  0  0  0  0  0  0  0  0  0  0
    2.6167   -1.4000    0.0000 O   0  0  0  0  0  0  0  0  0  0  0  0
    4.7542   -4.2792    0.0000 C   0  0  0  0  0  0  0  0  0  0  0  0
    2.6167   -3.8667    0.0000 C   0  0  0  0  0  0  0  0  0  0  0  0
    3.3292   -0.1542    0.0000 O   0  0  0  0  0  0  0  0  0  0  0  0
    5.4667   -3.8750    0.0000 C   0  0  0  0  0  0  0  0  0  0  0  0
    4.7542   -0.1542    0.0000 O   0  0  0  0  0  0  0  0  0  0  0  0
    1.9042   -4.2792    0.0000 F   0  0  0  0  0  0  0  0  0  0  0  0
    6.1917   -2.6375    0.0000 C   0  0  0  0  0  0  0  0  0  0  0  0
  2  4  1  0  0  0  0
  3  6  1  0  0  0  0
  4  1  2  0  0  0  0
  5  3  2  0  0  0  0
  6  1  1  0  0  0  0
  7  5  1  0  0  0  0
  8  1  1  0  0  0  0
  9  3  1  0  0  0  0
 10  2  1  0  0  0  0
 11 14  1  0  0  0  0
 12  6  2  0  0  0  0
 13  7  1  0  0  0  0
 14  9  2  0  0  0  0
 15  8  2  0  0  0  0
 16 10  1  0  0  0  0
 17  8  1  0  0  0  0
 18 14  1  0  0  0  0
 19 10  1  0  0  0  0
  5  2  1  0  0  0  0
 16 13  1  0  0  0  0
  7 11  2  0  0  0  0
M  END
> <#>
132

> <PLATE>
LAT002

> <ROW>
D

> <COL>
8

> <COORD>
D08

> <LATID>
LAT002D08

> <Supplier>
Microsource

> <Suplier_CAT#>
01500992

> <Name>
Flumequine

> <Concentration_(mM)>
2.5

> <IC50_(µM)>
13

> <Yeast_Active?>
-

> <Pubchem_CID>
3374

> <Description>
Antibacterial

$$$$
