
  -ISIS-  08130814242D

 36 40  0  0  0  0  0  0  0  0999 V2000
    6.6000    2.4875    0.0000 N   0  0  3  0  0  0  0  0  0  0  0  0
    7.0417    3.0958    0.0000 C   0  0  0  0  0  0  0  0  0  0  0  0
    6.6000    3.7083    0.0000 N   0  0  0  0  0  0  0  0  0  0  0  0
    5.8875    2.7208    0.0000 C   0  0  0  0  0  0  0  0  0  0  0  0
    5.8875    3.4708    0.0000 N   0  0  0  0  0  0  0  0  0  0  0  0
    3.3042    2.4458    0.0000 N   0  0  0  0  0  0  0  0  0  0  0  0
    2.6917    2.0083    0.0000 C   0  0  3  0  0  0  0  0  0  0  0  0
    5.2792    2.2833    0.0000 S   0  0  0  0  0  0  0  0  0  0  0  0
    7.7917    3.0958    0.0000 C   0  0  0  0  0  0  0  0  0  0  0  0
    3.9875    2.1458    0.0000 C   0  0  0  0  0  0  0  0  0  0  0  0
    6.8292    1.7750    0.0000 C   0  0  0  0  0  0  0  0  0  0  0  0
    4.0667    1.3958    0.0000 O   0  0  0  0  0  0  0  0  0  0  0  0
    2.0042    2.3125    0.0000 C   0  0  0  0  0  0  0  0  0  0  0  0
    2.7750    1.2583    0.0000 C   0  0  0  0  0  0  0  0  0  0  0  0
    4.5917    2.5833    0.0000 C   0  0  0  0  0  0  0  0  0  0  0  0
    8.1667    2.4458    0.0000 C   0  0  0  0  0  0  0  0  0  0  0  0
    8.1667    3.7458    0.0000 C   0  0  0  0  0  0  0  0  0  0  0  0
    9.2917    3.0958    0.0000 C   0  0  0  0  0  0  0  0  0  0  0  0
   10.0417    3.0958    0.0000 N   0  0  0  0  0  0  0  0  0  0  0  0
    8.9167    2.4458    0.0000 C   0  0  0  0  0  0  0  0  0  0  0  0
    8.9167    3.7458    0.0000 C   0  0  0  0  0  0  0  0  0  0  0  0
    6.3292    1.2208    0.0000 C   0  0  0  0  0  0  0  0  0  0  0  0
    7.5667    1.6208    0.0000 C   0  0  0  0  0  0  0  0  0  0  0  0
    2.1667    0.8208    0.0000 C   0  0  0  0  0  0  0  0  0  0  0  0
    3.4542    0.9583    0.0000 C   0  0  0  0  0  0  0  0  0  0  0  0
    1.9292    3.0583    0.0000 C   0  0  0  0  0  0  0  0  0  0  0  0
    1.4042    1.8708    0.0000 C   0  0  0  0  0  0  0  0  0  0  0  0
    7.7917    0.9083    0.0000 C   0  0  0  0  0  0  0  0  0  0  0  0
    6.5625    0.5083    0.0000 C   0  0  0  0  0  0  0  0  0  0  0  0
    3.5375    0.2083    0.0000 C   0  0  0  0  0  0  0  0  0  0  0  0
    1.2417    3.3625    0.0000 C   0  0  0  0  0  0  0  0  0  0  0  0
    0.7167    2.1750    0.0000 C   0  0  0  0  0  0  0  0  0  0  0  0
    2.2417    0.0750    0.0000 C   0  0  0  0  0  0  0  0  0  0  0  0
    7.2917    0.3458    0.0000 C   0  0  0  0  0  0  0  0  0  0  0  0
    2.9292   -0.2292    0.0000 C   0  0  0  0  0  0  0  0  0  0  0  0
    0.6417    2.9208    0.0000 C   0  0  0  0  0  0  0  0  0  0  0  0
  2  1  1  0  0  0  0
  3  2  2  0  0  0  0
  4  1  1  0  0  0  0
  5  4  2  0  0  0  0
  6 10  1  0  0  0  0
  7  6  1  0  0  0  0
  8  4  1  0  0  0  0
  9  2  1  0  0  0  0
 10 15  1  0  0  0  0
 11  1  1  0  0  0  0
 12 10  2  0  0  0  0
 13  7  1  0  0  0  0
 14  7  1  0  0  0  0
 15  8  1  0  0  0  0
 16  9  1  0  0  0  0
 17  9  2  0  0  0  0
 18 21  2  0  0  0  0
 19 18  1  0  0  0  0
 20 16  2  0  0  0  0
 21 17  1  0  0  0  0
 22 11  1  0  0  0  0
 23 11  2  0  0  0  0
 24 14  2  0  0  0  0
 25 14  1  0  0  0  0
 26 13  2  0  0  0  0
 27 13  1  0  0  0  0
 28 23  1  0  0  0  0
 29 22  2  0  0  0  0
 30 25  2  0  0  0  0
 31 26  1  0  0  0  0
 32 27  2  0  0  0  0
 33 24  1  0  0  0  0
 34 28  2  0  0  0  0
 35 30  1  0  0  0  0
 36 32  1  0  0  0  0
  3  5  1  0  0  0  0
 34 29  1  0  0  0  0
 20 18  1  0  0  0  0
 33 35  2  0  0  0  0
 31 36  2  0  0  0  0
M  END
> <#>
1743

> <PLATE>
LAT022

> <ROW>
G

> <COL>
9

> <COORD>
G09

> <LATID>
LAT022G09

> <Supplier>
Chembridge

> <Suplier_CAT#>
7845239

> <Name>
Novel

> <Concentration_(mM)>
2.5

> <IC50_(µM)>
inactive

> <Yeast_Active?>
-

> <Pubchem_CID>
2958253

$$$$
