
  -ISIS-  08130814242D

 22 24  0  0  0  0  0  0  0  0999 V2000
    6.3375   -2.9042    0.0000 C   0  0  0  0  0  0  0  0  0  0  0  0
    5.6375   -2.5000    0.0000 C   0  0  0  0  0  0  0  0  0  0  0  0
    4.9417   -2.9000    0.0000 C   0  0  0  0  0  0  0  0  0  0  0  0
    7.1042   -2.4625    0.0000 N   0  0  0  0  0  0  0  0  0  0  0  0
    9.2042   -2.8667    0.0000 N   0  0  0  0  0  0  0  0  0  0  0  0
    6.3292   -3.7917    0.0000 O   0  0  0  0  0  0  0  0  0  0  0  0
    4.9375   -3.7167    0.0000 C   0  0  0  0  0  0  0  0  0  0  0  0
    7.8042   -2.8542    0.0000 C   0  0  0  0  0  0  0  0  0  0  0  0
    8.5042   -2.4542    0.0000 C   0  0  0  0  0  0  0  0  0  0  0  0
    5.6417   -1.6917    0.0000 C   0  0  0  0  0  0  0  0  0  0  0  0
    4.2417   -2.4917    0.0000 C   0  0  0  0  0  0  0  0  0  0  0  0
    9.9042   -2.4542    0.0000 C   0  0  0  0  0  0  0  0  0  0  0  0
    5.6417   -4.1292    0.0000 C   0  0  0  0  0  0  0  0  0  0  0  0
    4.2167   -4.1292    0.0000 C   0  0  0  0  0  0  0  0  0  0  0  0
    8.5042   -1.6500    0.0000 C   0  0  0  0  0  0  0  0  0  0  0  0
    4.2417   -1.6792    0.0000 C   0  0  0  0  0  0  0  0  0  0  0  0
    4.9500   -1.2792    0.0000 C   0  0  0  0  0  0  0  0  0  0  0  0
    9.9125   -1.6500    0.0000 C   0  0  0  0  0  0  0  0  0  0  0  0
    4.2167   -4.9542    0.0000 C   0  0  0  0  0  0  0  0  0  0  0  0
    5.6417   -4.9542    0.0000 C   0  0  0  0  0  0  0  0  0  0  0  0
    9.2042   -1.2417    0.0000 C   0  0  0  0  0  0  0  0  0  0  0  0
    4.9292   -5.3667    0.0000 C   0  0  0  0  0  0  0  0  0  0  0  0
  2  1  1  0  0  0  0
  3  2  1  0  0  0  0
  4  1  1  0  0  0  0
  5  9  1  0  0  0  0
  6  1  2  0  0  0  0
  7  3  1  0  0  0  0
  8  4  1  0  0  0  0
  9  8  1  0  0  0  0
 10  2  2  0  0  0  0
 11  3  2  0  0  0  0
 12  5  2  0  0  0  0
 13  7  1  0  0  0  0
 14  7  2  0  0  0  0
 15  9  2  0  0  0  0
 16 17  2  0  0  0  0
 17 10  1  0  0  0  0
 18 21  2  0  0  0  0
 19 14  1  0  0  0  0
 20 13  2  0  0  0  0
 21 15  1  0  0  0  0
 22 19  2  0  0  0  0
 11 16  1  0  0  0  0
 12 18  1  0  0  0  0
 22 20  1  0  0  0  0
M  END
> <#>
1534

> <PLATE>
LAT020

> <ROW>
F

> <COL>
3

> <COORD>
F03

> <LATID>
LAT020F03

> <Supplier>
Chembridge

> <Suplier_CAT#>
7717072

> <Name>
Novel

> <Concentration_(mM)>
2.5

> <IC50_(µM)>
inactive

> <Yeast_Active?>
-

> <Pubchem_CID>
976270

$$$$
