
  -ISIS-  08130814242D

 26 29  0  0  0  0  0  0  0  0999 V2000
    0.7500   -0.4792    0.0000 C   0  0  0  0  0  0  0  0  0  0  0  0
    0.3500   -0.6542    0.0000 N   0  0  3  0  0  0  0  0  0  0  0  0
    0.7042   -0.0292    0.0000 N   0  0  0  0  0  0  0  0  0  0  0  0
    0.0500   -0.3167    0.0000 C   0  0  0  0  0  0  0  0  0  0  0  0
    0.2667    0.0625    0.0000 C   0  0  0  0  0  0  0  0  0  0  0  0
    1.1500   -0.7000    0.0000 C   0  0  3  0  0  0  0  0  0  0  0  0
    0.2667   -1.1000    0.0000 C   0  0  0  0  0  0  0  0  0  0  0  0
    1.5292   -0.4792    0.0000 C   0  0  0  0  0  0  0  0  0  0  0  0
    1.5292   -0.0292    0.0000 C   0  0  0  0  0  0  0  0  0  0  0  0
    1.9042   -0.7000    0.0000 C   0  0  0  0  0  0  0  0  0  0  0  0
    1.1500   -1.1375    0.0000 O   0  0  0  0  0  0  0  0  0  0  0  0
    2.2875   -0.0292    0.0000 C   0  0  0  0  0  0  0  0  0  0  0  0
   -0.1458   -1.2500    0.0000 C   0  0  0  0  0  0  0  0  0  0  0  0
    1.9042    0.1833    0.0000 C   0  0  0  0  0  0  0  0  0  0  0  0
    2.2875   -0.4792    0.0000 C   0  0  0  0  0  0  0  0  0  0  0  0
   -0.3958   -0.3167    0.0000 C   0  0  0  0  0  0  0  0  0  0  0  0
    0.0500    0.4458    0.0000 C   0  0  0  0  0  0  0  0  0  0  0  0
    2.6875    0.2000    0.0000 O   0  0  0  0  0  0  0  0  0  0  0  0
   -0.2208   -1.6875    0.0000 C   0  0  0  0  0  0  0  0  0  0  0  0
   -0.4708   -0.9667    0.0000 C   0  0  0  0  0  0  0  0  0  0  0  0
    2.6875    0.6458    0.0000 C   0  0  0  0  0  0  0  0  0  0  0  0
   -0.6125    0.0625    0.0000 C   0  0  0  0  0  0  0  0  0  0  0  0
   -0.3958    0.4458    0.0000 C   0  0  0  0  0  0  0  0  0  0  0  0
   -0.8958   -1.1042    0.0000 C   0  0  0  0  0  0  0  0  0  0  0  0
   -0.6458   -1.8375    0.0000 C   0  0  0  0  0  0  0  0  0  0  0  0
   -0.9708   -1.5500    0.0000 C   0  0  0  0  0  0  0  0  0  0  0  0
  2  1  1  0  0  0  0
  3  1  2  0  0  0  0
  4  2  1  0  0  0  0
  5  3  1  0  0  0  0
  6  1  1  0  0  0  0
  7  2  1  0  0  0  0
  8  6  1  0  0  0  0
  9  8  2  0  0  0  0
 10  8  1  0  0  0  0
 11  6  1  0  0  0  0
 12 15  1  0  0  0  0
 13  7  1  0  0  0  0
 14  9  1  0  0  0  0
 15 10  2  0  0  0  0
 16  4  1  0  0  0  0
 17  5  1  0  0  0  0
 18 12  1  0  0  0  0
 19 13  2  0  0  0  0
 20 13  1  0  0  0  0
 21 18  1  0  0  0  0
 22 16  2  0  0  0  0
 23 17  2  0  0  0  0
 24 20  2  0  0  0  0
 25 19  1  0  0  0  0
 26 24  1  0  0  0  0
  5  4  2  0  0  0  0
 12 14  2  0  0  0  0
 23 22  1  0  0  0  0
 26 25  2  0  0  0  0
M  END
> <#>
821

> <PLATE>
LAT011

> <ROW>
E

> <COL>
4

> <COORD>
E04

> <LATID>
LAT011E04

> <Supplier>
Chembridge

> <Suplier_CAT#>
5664560

> <Name>
Novel

> <Sec_Name>
207_C06

> <Concentration_(mM)>
2.5

> <IC50_(µM)>
22

> <Yeast_Active?>
-

> <Pubchem_CID>
867678

$$$$
