
  -ISIS-  08130814242D

 20 21  0  0  0  0  0  0  0  0999 V2000
    3.4792   -4.2292    0.0000 C   0  0  0  0  0  0  0  0  0  0  0  0
    3.4792   -3.3917    0.0000 C   0  0  0  0  0  0  0  0  0  0  0  0
    4.2042   -4.6417    0.0000 C   0  0  0  0  0  0  0  0  0  0  0  0
    4.9167   -4.2250    0.0000 C   0  0  0  0  0  0  0  0  0  0  0  0
    2.7625   -2.9792    0.0000 C   0  0  0  0  0  0  0  0  0  0  0  0
    2.7625   -4.6417    0.0000 C   0  0  0  0  0  0  0  0  0  0  0  0
    5.6375   -4.6375    0.0000 C   0  0  0  0  0  0  0  0  0  0  0  0
    4.2042   -5.4667    0.0000 O   0  0  0  0  0  0  0  0  0  0  0  0
    2.0417   -3.3917    0.0000 C   0  0  0  0  0  0  0  0  0  0  0  0
    6.3542   -4.2250    0.0000 C   0  0  0  0  0  0  0  0  0  0  0  0
    4.2000   -2.9750    0.0000 O   0  0  0  0  0  0  0  0  0  0  0  0
    2.0417   -4.2292    0.0000 C   0  0  0  0  0  0  0  0  0  0  0  0
    7.7792   -3.3917    0.0000 C   0  0  0  0  0  0  0  0  0  0  0  0
    7.0750   -4.6375    0.0000 C   0  0  0  0  0  0  0  0  0  0  0  0
    6.3500   -3.4000    0.0000 C   0  0  0  0  0  0  0  0  0  0  0  0
    7.0667   -2.9792    0.0000 C   0  0  0  0  0  0  0  0  0  0  0  0
    7.7917   -4.2250    0.0000 C   0  0  0  0  0  0  0  0  0  0  0  0
    1.3250   -2.9792    0.0000 O   0  0  0  0  0  0  0  0  0  0  0  0
    8.5042   -2.9750    0.0000 C   0  0  0  0  0  0  0  0  0  0  0  0
    0.6042   -3.4000    0.0000 C   0  0  0  0  0  0  0  0  0  0  0  0
  2  1  1  0  0  0  0
  3  1  1  0  0  0  0
  4  3  1  0  0  0  0
  5  2  2  0  0  0  0
  6  1  2  0  0  0  0
  7  4  2  0  0  0  0
  8  3  2  0  0  0  0
  9 12  2  0  0  0  0
 10  7  1  0  0  0  0
 11  2  1  0  0  0  0
 12  6  1  0  0  0  0
 13 16  1  0  0  0  0
 14 10  2  0  0  0  0
 15 10  1  0  0  0  0
 16 15  2  0  0  0  0
 17 14  1  0  0  0  0
 18  9  1  0  0  0  0
 19 13  1  0  0  0  0
 20 18  1  0  0  0  0
  5  9  1  0  0  0  0
 13 17  2  0  0  0  0
M  END
> <#>
1369

> <PLATE>
LAT018

> <ROW>
A

> <COL>
3

> <COORD>
A03

> <LATID>
LAT018A03

> <Supplier>
Chembridge

> <Suplier_CAT#>
7118982

> <Name>
Novel

> <Concentration_(mM)>
2.5

> <IC50_(µM)>
inactive

> <Yeast_Active?>
-

> <Pubchem_CID>
2927306

$$$$
