
  -ISIS-  08130814242D

 21 23  0  0  0  0  0  0  0  0999 V2000
    7.6417    3.1708    0.0000 C   0  0  0  0  0  0  0  0  0  0  0  0
    7.5667    2.4208    0.0000 N   0  0  0  0  0  0  0  0  0  0  0  0
    6.9625    3.4708    0.0000 N   0  0  3  0  0  0  0  0  0  0  0  0
    6.4625    2.9125    0.0000 C   0  0  0  0  0  0  0  0  0  0  0  0
    6.8375    2.2708    0.0000 C   0  0  0  0  0  0  0  0  0  0  0  0
    8.2917    3.5458    0.0000 N   0  0  0  0  0  0  0  0  0  0  0  0
   10.2417    3.1708    0.0000 N   0  0  0  0  0  0  0  0  0  0  0  0
    8.9417    3.1708    0.0000 C   0  0  0  0  0  0  0  0  0  0  0  0
    9.5917    3.5458    0.0000 C   0  0  0  0  0  0  0  0  0  0  0  0
    6.8042    4.1917    0.0000 C   0  0  0  0  0  0  0  0  0  0  0  0
    5.7125    2.9125    0.0000 C   0  0  0  0  0  0  0  0  0  0  0  0
    6.4625    1.6125    0.0000 C   0  0  0  0  0  0  0  0  0  0  0  0
   10.8917    3.5458    0.0000 C   0  0  0  0  0  0  0  0  0  0  0  0
    9.5917    4.2792    0.0000 C   0  0  0  0  0  0  0  0  0  0  0  0
    6.0917    4.4292    0.0000 C   0  0  0  0  0  0  0  0  0  0  0  0
    5.9375    5.1542    0.0000 C   0  0  0  0  0  0  0  0  0  0  0  0
    5.3375    2.2708    0.0000 C   0  0  0  0  0  0  0  0  0  0  0  0
    5.7125    1.6125    0.0000 C   0  0  0  0  0  0  0  0  0  0  0  0
   10.8917    4.2792    0.0000 C   0  0  0  0  0  0  0  0  0  0  0  0
    5.2250    5.3917    0.0000 C   0  0  0  0  0  0  0  0  0  0  0  0
   10.2417    4.6542    0.0000 C   0  0  0  0  0  0  0  0  0  0  0  0
  2  1  2  0  0  0  0
  3  1  1  0  0  0  0
  4  3  1  0  0  0  0
  5  2  1  0  0  0  0
  6  1  1  0  0  0  0
  7  9  1  0  0  0  0
  8  6  1  0  0  0  0
  9  8  1  0  0  0  0
 10  3  1  0  0  0  0
 11  4  1  0  0  0  0
 12  5  1  0  0  0  0
 13  7  2  0  0  0  0
 14  9  2  0  0  0  0
 15 10  1  0  0  0  0
 16 15  1  0  0  0  0
 17 11  2  0  0  0  0
 18 12  2  0  0  0  0
 19 21  2  0  0  0  0
 20 16  1  0  0  0  0
 21 14  1  0  0  0  0
  5  4  2  0  0  0  0
 17 18  1  0  0  0  0
 19 13  1  0  0  0  0
M  END
> <#>
1553

> <PLATE>
LAT020

> <ROW>
A

> <COL>
6

> <COORD>
A06

> <LATID>
LAT020A06

> <Supplier>
Chembridge

> <Suplier_CAT#>
7962224

> <Name>
Novel

> <Concentration_(mM)>
2.5

> <IC50_(µM)>
>100

> <Yeast_Active?>
-

> <Pubchem_CID>
666883

$$$$
