
  -ISIS-  08130814242D

 23 25  0  0  0  0  0  0  0  0999 V2000
    0.3500    2.2083    0.0000 C   0  0  0  0  0  0  0  0  0  0  0  0
    1.0375    1.9583    0.0000 N   0  0  3  0  0  0  0  0  0  0  0  0
    1.4792    2.5458    0.0000 C   0  0  0  0  0  0  0  0  0  0  0  0
    1.0375    3.1333    0.0000 N   0  0  0  0  0  0  0  0  0  0  0  0
    0.3542    2.9208    0.0000 C   0  0  0  0  0  0  0  0  0  0  0  0
   -0.2125    1.7208    0.0000 C   0  0  3  0  0  0  0  0  0  0  0  0
    0.2875    1.1500    0.0000 C   0  0  0  0  0  0  0  0  0  0  0  0
   -0.6958    2.2708    0.0000 C   0  0  0  0  0  0  0  0  0  0  0  0
    2.2167    2.5458    0.0000 C   0  0  3  0  0  0  0  0  0  0  0  0
   -0.7708    1.2333    0.0000 O   0  0  0  0  0  0  0  0  0  0  0  0
    1.2792    1.2500    0.0000 C   0  0  0  0  0  0  0  0  0  0  0  0
    0.0500    0.4458    0.0000 C   0  0  0  0  0  0  0  0  0  0  0  0
   -0.4500    2.9625    0.0000 C   0  0  0  0  0  0  0  0  0  0  0  0
   -1.4208    2.1000    0.0000 C   0  0  0  0  0  0  0  0  0  0  0  0
    1.0000    1.3000    0.0000 C   0  0  0  0  0  0  0  0  0  0  0  0
    2.5792    1.9000    0.0000 C   0  0  0  0  0  0  0  0  0  0  0  0
    2.5875    3.1958    0.0000 C   0  0  0  0  0  0  0  0  0  0  0  0
   -1.9125    2.6708    0.0000 C   0  0  0  0  0  0  0  0  0  0  0  0
    1.4875    0.7458    0.0000 C   0  0  0  0  0  0  0  0  0  0  0  0
    0.5500   -0.1167    0.0000 C   0  0  0  0  0  0  0  0  0  0  0  0
   -0.9500    3.5208    0.0000 C   0  0  0  0  0  0  0  0  0  0  0  0
    1.2500    0.0458    0.0000 C   0  0  0  0  0  0  0  0  0  0  0  0
   -1.6625    3.3625    0.0000 C   0  0  0  0  0  0  0  0  0  0  0  0
  2  1  1  0  0  0  0
  3  2  1  0  0  0  0
  4  5  1  0  0  0  0
  5  1  2  0  0  0  0
  6  1  1  0  0  0  0
  7  6  1  0  0  0  0
  8  6  1  0  0  0  0
  9  3  1  0  0  0  0
 10  6  1  0  0  0  0
 11  2  1  0  0  0  0
 12  7  1  0  0  0  0
 13  8  1  0  0  0  0
 14  8  2  0  0  0  0
 15  7  2  0  0  0  0
 16  9  1  0  0  0  0
 17  9  1  0  0  0  0
 18 14  1  0  0  0  0
 19 15  1  0  0  0  0
 20 12  2  0  0  0  0
 21 13  2  0  0  0  0
 22 19  2  0  0  0  0
 23 18  2  0  0  0  0
  4  3  2  0  0  0  0
 21 23  1  0  0  0  0
 20 22  1  0  0  0  0
M  END
> <#>
1008

> <PLATE>
LAT013

> <ROW>
H

> <COL>
7

> <COORD>
H07

> <LATID>
LAT013H07

> <Supplier>
Chembridge

> <Suplier_CAT#>
5523434

> <Name>
Novel

> <Sec_Name>
147_A10

> <Concentration_(mM)>
2.5

> <IC50_(µM)>
inactive

> <Yeast_Active?>
-

> <Pubchem_CID>
2849662

$$$$
