
  -ISIS-  08130814242D

 33 37  0  0  0  0  0  0  0  0999 V2000
   -0.4500    3.1458    0.0000 N   0  0  0  0  0  0  0  0  0  0  0  0
    0.0500    2.8708    0.0000 N   0  0  3  0  0  0  0  0  0  0  0  0
   -0.4625    3.7125    0.0000 N   0  0  0  0  0  0  0  0  0  0  0  0
   -3.6833    1.8458    0.0000 C   0  0  0  0  0  0  0  0  0  0  0  0
   -4.2208    2.1458    0.0000 C   0  0  0  0  0  0  0  0  0  0  0  0
    0.5292    3.1500    0.0000 C   0  0  0  0  0  0  0  0  0  0  0  0
   -0.4833    1.9208    0.0000 C   0  0  0  0  0  0  0  0  0  0  0  0
    0.0542    2.2708    0.0000 C   0  0  0  0  0  0  0  0  0  0  0  0
    0.5167    3.7208    0.0000 C   0  0  0  0  0  0  0  0  0  0  0  0
   -4.7708    1.8208    0.0000 C   0  0  0  0  0  0  0  0  0  0  0  0
   -3.1458    2.1833    0.0000 C   0  0  0  0  0  0  0  0  0  0  0  0
   -2.6000    1.8833    0.0000 C   0  0  0  0  0  0  0  0  0  0  0  0
   -3.6833    1.2000    0.0000 C   0  0  0  0  0  0  0  0  0  0  0  0
   -2.0833    2.1833    0.0000 C   0  0  0  0  0  0  0  0  0  0  0  0
   -0.4625    1.2833    0.0000 C   0  0  0  0  0  0  0  0  0  0  0  0
   -1.0208    2.2083    0.0000 C   0  0  0  0  0  0  0  0  0  0  0  0
   -4.7708    1.2000    0.0000 C   0  0  0  0  0  0  0  0  0  0  0  0
   -4.2208    0.9000    0.0000 C   0  0  0  0  0  0  0  0  0  0  0  0
   -3.1625    2.7833    0.0000 O   0  0  0  0  0  0  0  0  0  0  0  0
   -1.5458    1.8833    0.0000 C   0  0  0  0  0  0  0  0  0  0  0  0
   -0.9833    0.9833    0.0000 C   0  0  0  0  0  0  0  0  0  0  0  0
   -4.2208    2.7708    0.0000 O   0  0  0  0  0  0  0  0  0  0  0  0
   -1.5208    1.2833    0.0000 C   0  0  0  0  0  0  0  0  0  0  0  0
    0.0792    0.9625    0.0000 O   0  0  0  0  0  0  0  0  0  0  0  0
    1.0500    2.8833    0.0000 C   0  0  0  0  0  0  0  0  0  0  0  0
   -5.2833    2.1458    0.0000 C   0  0  0  0  0  0  0  0  0  0  0  0
    1.0292    4.0000    0.0000 C   0  0  0  0  0  0  0  0  0  0  0  0
   -5.2833    0.9000    0.0000 C   0  0  0  0  0  0  0  0  0  0  0  0
    0.6167    1.2625    0.0000 C   0  0  0  0  0  0  0  0  0  0  0  0
    1.5500    3.1708    0.0000 C   0  0  0  0  0  0  0  0  0  0  0  0
   -5.8208    1.8458    0.0000 C   0  0  0  0  0  0  0  0  0  0  0  0
    1.5375    3.7458    0.0000 C   0  0  0  0  0  0  0  0  0  0  0  0
   -5.8208    1.2000    0.0000 C   0  0  0  0  0  0  0  0  0  0  0  0
  2  1  1  0  0  0  0
  3  1  2  0  0  0  0
  4 11  1  0  0  0  0
  5  4  1  0  0  0  0
  6  2  1  0  0  0  0
  7  8  1  0  0  0  0
  8  2  1  0  0  0  0
  9  3  1  0  0  0  0
 10  5  2  0  0  0  0
 11 12  1  0  0  0  0
 12 14  2  0  0  0  0
 13  4  2  0  0  0  0
 14 20  1  0  0  0  0
 15  7  1  0  0  0  0
 16  7  2  0  0  0  0
 17 18  2  0  0  0  0
 18 13  1  0  0  0  0
 19 11  2  0  0  0  0
 20 16  1  0  0  0  0
 21 15  2  0  0  0  0
 22  5  1  0  0  0  0
 23 20  2  0  0  0  0
 24 15  1  0  0  0  0
 25  6  1  0  0  0  0
 26 10  1  0  0  0  0
 27  9  1  0  0  0  0
 28 17  1  0  0  0  0
 29 24  1  0  0  0  0
 30 25  2  0  0  0  0
 31 26  2  0  0  0  0
 32 27  2  0  0  0  0
 33 28  2  0  0  0  0
  6  9  2  0  0  0  0
 30 32  1  0  0  0  0
 21 23  1  0  0  0  0
 10 17  1  0  0  0  0
 31 33  1  0  0  0  0
M  END
> <#>
1227

> <PLATE>
LAT016

> <ROW>
C

> <COL>
5

> <COORD>
C05

> <LATID>
LAT016C05

> <Supplier>
Chembridge

> <Suplier_CAT#>
6146422

> <Name>
Novel

> <Concentration_(mM)>
2.5

> <IC50_(µM)>
inactive

> <Yeast_Active?>
-

> <Pubchem_CID>
2888115

$$$$
