
  -ISIS-  08130814242D

 15 15  0  0  0  0  0  0  0  0999 V2000
   -2.4208    4.6375    0.0000 C   0  0  0  0  0  0  0  0  0  0  0  0
   -0.9500    7.1667    0.0000 C   0  0  0  0  0  0  0  0  0  0  0  0
    3.5500    9.6292    0.0000 C   0  0  0  0  0  0  0  0  0  0  0  0
    2.0667    7.0917    0.0000 C   0  0  0  0  0  0  0  0  0  0  0  0
   -5.4208    4.6375    0.0000 N   0  0  0  0  0  0  0  0  0  0  0  0
  -11.4875   -0.5667    0.0000 N   0  0  0  0  0  0  0  0  0  0  0  0
   -0.9500    2.0458    0.0000 O   0  0  0  0  0  0  0  0  0  0  0  0
    2.0667   12.2375    0.0000 O   0  0  0  0  0  0  0  0  0  0  0  0
  -10.0000    2.0333    0.0000 C   0  0  0  0  0  0  0  0  0  0  0  0
   -6.9375    2.0625    0.0000 C   0  0  0  0  0  0  0  0  0  0  0  0
    6.5042    9.6292    0.0000 O   0  0  0  0  0  0  0  0  0  0  0  0
  -14.5000   -0.5667    0.0000 C   0  0  0  0  0  0  0  0  0  0  0  0
  -11.4667    4.6667    0.0000 C   0  0  0  0  0  0  0  0  0  0  0  0
  -16.0000    2.0333    0.0000 C   0  0  0  0  0  0  0  0  0  0  0  0
  -14.5000    4.6042    0.0000 C   0  0  0  0  0  0  0  0  0  0  0  0
  2  1  1  0  0  0  0
  3  4  1  0  0  0  0
  4  2  2  0  0  0  0
  5  1  1  0  0  0  0
  6  9  2  0  0  0  0
  7  1  2  0  0  0  0
  8  3  2  0  0  0  0
  9 10  1  0  0  0  0
 10  5  1  0  0  0  0
 11  3  1  0  0  0  0
 12  6  1  0  0  0  0
 13  9  1  0  0  0  0
 14 15  1  0  0  0  0
 15 13  2  0  0  0  0
 12 14  2  0  0  0  0
M  END
> <#>
1558

> <PLATE>
LAT020

> <ROW>
F

> <COL>
6

> <COORD>
F06

> <LATID>
LAT020F06

> <Supplier>
Chembridge

> <Suplier_CAT#>
7297914

> <Name>
Novel

> <Concentration_(mM)>
2.5

> <IC50_(µM)>
inactive

> <Yeast_Active?>
-

> <Pubchem_CID>
818476

$$$$
