
  -ISIS-  08130814242D

 23 24  0  0  0  0  0  0  0  0999 V2000
    1.3042   -1.5500    0.0000 C   0  0  0  0  0  0  0  0  0  0  0  0
    1.3042   -2.3042    0.0000 C   0  0  0  0  0  0  0  0  0  0  0  0
    3.2542   -1.1792    0.0000 C   0  0  0  0  0  0  0  0  0  0  0  0
    4.5542   -1.1792    0.0000 N   0  0  0  0  0  0  0  0  0  0  0  0
    0.6542   -2.6792    0.0000 C   0  0  0  0  0  0  0  0  0  0  0  0
    1.9542   -1.1792    0.0000 O   0  0  0  0  0  0  0  0  0  0  0  0
    3.9042   -1.5542    0.0000 N   0  0  0  0  0  0  0  0  0  0  0  0
    0.6542   -1.1667    0.0000 C   0  0  0  0  0  0  0  0  0  0  0  0
    3.2542   -0.4292    0.0000 O   0  0  0  0  0  0  0  0  0  0  0  0
    7.1542   -0.4292    0.0000 N   0  0  0  0  0  0  0  0  0  0  0  0
    2.6042   -1.5500    0.0000 C   0  0  0  0  0  0  0  0  0  0  0  0
    5.2042   -1.5542    0.0000 C   0  0  0  0  0  0  0  0  0  0  0  0
    1.9542   -2.6792    0.0000 C   0  0  3  0  0  0  0  0  0  0  0  0
    0.0042   -2.3042    0.0000 C   0  0  0  0  0  0  0  0  0  0  0  0
    0.0042   -1.5500    0.0000 C   0  0  0  0  0  0  0  0  0  0  0  0
    5.8542   -1.1792    0.0000 C   0  0  0  0  0  0  0  0  0  0  0  0
    7.1542   -1.1792    0.0000 C   0  0  0  0  0  0  0  0  0  0  0  0
    6.5042   -0.0542    0.0000 C   0  0  0  0  0  0  0  0  0  0  0  0
    2.6042   -2.3042    0.0000 C   0  0  0  0  0  0  0  0  0  0  0  0
    1.9542   -3.4292    0.0000 C   0  0  0  0  0  0  0  0  0  0  0  0
   -0.6333   -1.1792    0.0000 C   0  0  0  0  0  0  0  0  0  0  0  0
    6.5042   -1.5542    0.0000 C   0  0  0  0  0  0  0  0  0  0  0  0
    5.8542   -0.4292    0.0000 C   0  0  0  0  0  0  0  0  0  0  0  0
  2  1  2  0  0  0  0
  3 11  1  0  0  0  0
  4  7  1  0  0  0  0
  5  2  1  0  0  0  0
  6  1  1  0  0  0  0
  7  3  1  0  0  0  0
  8  1  1  0  0  0  0
  9  3  2  0  0  0  0
 10 18  2  0  0  0  0
 11  6  1  0  0  0  0
 12  4  2  0  0  0  0
 13  2  1  0  0  0  0
 14 15  1  0  0  0  0
 15  8  2  0  0  0  0
 16 12  1  0  0  0  0
 17 22  2  0  0  0  0
 18 23  1  0  0  0  0
 19 13  1  0  0  0  0
 20 13  1  0  0  0  0
 21 15  1  0  0  0  0
 22 16  1  0  0  0  0
 23 16  2  0  0  0  0
 14  5  2  0  0  0  0
 17 10  1  0  0  0  0
M  END
> <#>
1891

> <PLATE>
LAT024

> <ROW>
C

> <COL>
8

> <COORD>
C08

> <LATID>
LAT024C08

> <Supplier>
Chembridge

> <Suplier_CAT#>
5479137

> <Name>
S001 A07

> <Concentration_(mM)>
2.5

> <IC50_(µM)>
>100

> <Yeast_Active?>
-

> <Pubchem_CID>
772968

$$$$
