
  -ISIS-  08130814242D

 20 22  0  0  0  0  0  0  0  0999 V2000
    1.7292    2.1208    0.0000 C   0  0  0  0  0  0  0  0  0  0  0  0
   -1.2708    1.7958    0.0000 N   0  0  0  0  0  0  0  0  0  0  0  0
    1.7292    2.9125    0.0000 C   0  0  0  0  0  0  0  0  0  0  0  0
   -2.6500    1.7708    0.0000 C   0  0  0  0  0  0  0  0  0  0  0  0
   -1.9708    1.3958    0.0000 C   0  0  0  0  0  0  0  0  0  0  0  0
    2.4042    1.7333    0.0000 O   0  0  0  0  0  0  0  0  0  0  0  0
    1.0500    1.7208    0.0000 C   0  0  0  0  0  0  0  0  0  0  0  0
    2.4042    3.3125    0.0000 O   0  0  0  0  0  0  0  0  0  0  0  0
   -3.3458    1.3958    0.0000 C   0  0  0  0  0  0  0  0  0  0  0  0
    1.0500    3.3000    0.0000 C   0  0  0  0  0  0  0  0  0  0  0  0
   -1.9708    0.6000    0.0000 C   0  0  0  0  0  0  0  0  0  0  0  0
   -3.3458    0.6000    0.0000 C   0  0  0  0  0  0  0  0  0  0  0  0
    0.3667    2.1208    0.0000 C   0  0  0  0  0  0  0  0  0  0  0  0
   -0.3000    1.7458    0.0000 C   0  0  0  0  0  0  0  0  0  0  0  0
   -2.6500    0.2000    0.0000 C   0  0  0  0  0  0  0  0  0  0  0  0
    0.3667    2.9000    0.0000 C   0  0  0  0  0  0  0  0  0  0  0  0
   -4.0208    0.2208    0.0000 F   0  0  0  0  0  0  0  0  0  0  0  0
   -2.6500    2.5458    0.0000 C   0  0  0  0  0  0  0  0  0  0  0  0
    3.1000    2.1208    0.0000 C   0  0  0  0  0  0  0  0  0  0  0  0
    3.1000    2.9125    0.0000 C   0  0  0  0  0  0  0  0  0  0  0  0
  2 14  1  0  0  0  0
  3  1  1  0  0  0  0
  4  5  2  0  0  0  0
  5  2  1  0  0  0  0
  6  1  1  0  0  0  0
  7  1  2  0  0  0  0
  8  3  1  0  0  0  0
  9  4  1  0  0  0  0
 10  3  2  0  0  0  0
 11  5  1  0  0  0  0
 12 15  1  0  0  0  0
 13  7  1  0  0  0  0
 14 13  1  0  0  0  0
 15 11  2  0  0  0  0
 16 13  2  0  0  0  0
 17 12  1  0  0  0  0
 18  4  1  0  0  0  0
 19  6  1  0  0  0  0
 20 19  1  0  0  0  0
 16 10  1  0  0  0  0
 20  8  1  0  0  0  0
  9 12  2  0  0  0  0
M  END
> <#>
738

> <PLATE>
LAT010

> <ROW>
B

> <COL>
4

> <COORD>
B04

> <LATID>
LAT010B04

> <Supplier>
Chembridge

> <Suplier_CAT#>
5575278

> <Name>
Novel

> <Sec_Name>
178_C04

> <Concentration_(mM)>
2.5

> <IC50_(µM)>
>100

> <Yeast_Active?>
-

> <Pubchem_CID>
777022

$$$$
