
  -ISIS-  08130814242D

 16 17  0  0  0  0  0  0  0  0999 V2000
   -2.3708    1.3125    0.0000 C   0  0  0  0  0  0  0  0  0  0  0  0
    0.3042   -0.2292    0.0000 C   0  0  0  0  0  0  0  0  0  0  0  0
   -3.2708    1.3125    0.0000 C   0  0  0  0  0  0  0  0  0  0  0  0
    0.7500   -0.9875    0.0000 C   0  0  0  0  0  0  0  0  0  0  0  0
    1.6292   -0.8042    0.0000 S   0  0  0  0  0  0  0  0  0  0  0  0
   -1.0458    0.5458    0.0000 N   0  0  0  0  0  0  0  0  0  0  0  0
    1.7167    0.1000    0.0000 C   0  0  0  0  0  0  0  0  0  0  0  0
   -3.8208    2.0333    0.0000 O   0  0  0  0  0  0  0  0  0  0  0  0
    0.9000    0.4500    0.0000 C   0  0  0  0  0  0  0  0  0  0  0  0
   -1.9333    0.5458    0.0000 N   0  0  0  0  0  0  0  0  0  0  0  0
   -1.9333    2.0958    0.0000 O   0  0  0  0  0  0  0  0  0  0  0  0
   -3.7958    0.5958    0.0000 C   0  0  0  0  0  0  0  0  0  0  0  0
   -0.5833   -0.2292    0.0000 C   0  0  0  0  0  0  0  0  0  0  0  0
   -4.6583    1.7458    0.0000 C   0  0  0  0  0  0  0  0  0  0  0  0
   -4.6458    0.8625    0.0000 C   0  0  0  0  0  0  0  0  0  0  0  0
    0.3875   -1.8000    0.0000 C   0  0  0  0  0  0  0  0  0  0  0  0
  2 13  1  0  0  0  0
  3  1  1  0  0  0  0
  4  2  2  0  0  0  0
  5  4  1  0  0  0  0
  6 10  1  0  0  0  0
  7  9  2  0  0  0  0
  8  3  1  0  0  0  0
  9  2  1  0  0  0  0
 10  1  1  0  0  0  0
 11  1  2  0  0  0  0
 12  3  2  0  0  0  0
 13  6  2  0  0  0  0
 14  8  1  0  0  0  0
 15 12  1  0  0  0  0
 16  4  1  0  0  0  0
 14 15  2  0  0  0  0
  5  7  1  0  0  0  0
M  END
> <#>
662

> <PLATE>
LAT009

> <ROW>
F

> <COL>
4

> <COORD>
F04

> <LATID>
LAT009F04

> <Supplier>
Chembridge

> <Suplier_CAT#>
5528844

> <Name>
Novel

> <Sec_Name>
151_E10

> <Concentration_(mM)>
2.5

> <IC50_(µM)>
>100

> <Yeast_Active?>
-

> <Pubchem_CID>
871032

$$$$
