
  -ISIS-  08130814242D

 15 15  0  0  0  0  0  0  0  0999 V2000
    0.7542   -2.1167    0.0000 C   0  0  0  0  0  0  0  0  0  0  0  0
    0.7542   -2.9417    0.0000 C   0  0  0  0  0  0  0  0  0  0  0  0
    0.0417   -1.7042    0.0000 C   0  0  0  0  0  0  0  0  0  0  0  0
    1.4750   -1.7042    0.0000 C   0  0  0  0  0  0  0  0  0  0  0  0
    0.0417   -3.3542    0.0000 C   0  0  0  0  0  0  0  0  0  0  0  0
   -0.6625   -2.1167    0.0000 C   0  0  0  0  0  0  0  0  0  0  0  0
   -0.6625   -2.9417    0.0000 C   0  0  0  0  0  0  0  0  0  0  0  0
    2.1875   -2.1250    0.0000 O   0  0  0  0  0  0  0  0  0  0  0  0
    1.4750   -3.3542    0.0000 O   0  0  0  0  0  0  0  0  0  0  0  0
    1.4792   -0.8792    0.0000 O   0  0  0  0  0  0  0  0  0  0  0  0
   -1.3833   -3.3542    0.0000 O   0  0  0  0  0  0  0  0  0  0  0  0
    0.0417   -0.8792    0.0000 C   0  0  0  0  0  0  0  0  0  0  0  0
    2.1917   -0.4750    0.0000 C   0  0  0  0  0  0  0  0  0  0  0  0
   -2.0958   -2.9417    0.0000 C   0  0  0  0  0  0  0  0  0  0  0  0
    2.1917    0.3500    0.0000 C   0  0  0  0  0  0  0  0  0  0  0  0
  2  1  1  0  0  0  0
  3  1  2  0  0  0  0
  4  1  1  0  0  0  0
  5  2  2  0  0  0  0
  6  3  1  0  0  0  0
  7  6  2  0  0  0  0
  8  4  2  0  0  0  0
  9  2  1  0  0  0  0
 10  4  1  0  0  0  0
 11  7  1  0  0  0  0
 12  3  1  0  0  0  0
 13 10  1  0  0  0  0
 14 11  1  0  0  0  0
 15 13  1  0  0  0  0
  7  5  1  0  0  0  0
M  END
> <#>
178

> <PLATE>
LAT003

> <ROW>
B

> <COL>
4

> <COORD>
B04

> <LATID>
LAT003B04

> <Supplier>
Microsource

> <Suplier_CAT#>
00211009

> <Name>
Ethyl Everninate

> <Concentration_(mM)>
2.5

> <IC50_(µM)>
inactive

> <Yeast_Active?>
-

> <Pubchem_CID>
80201

> <Source>
Natural Product; ex lichen acids

$$$$
