
  -ISIS-  08130814242D

  7  6  0  0  0  0  0  0  0  0999 V2000
   -3.0539    1.3288    0.0000 C   0  0  0  0  0  0  0  0  0  0  0  0
   -1.9714    1.9538    0.0000 C   0  0  3  0  0  0  0  0  0  0  0  0
   -2.7749    2.9114    0.0000 C   0  0  0  0  0  0  0  0  0  0  0  0
   -1.1679    2.9114    0.0000 C   0  0  0  0  0  0  0  0  0  0  0  0
   -4.1365    1.9538    0.0000 O   0  0  0  0  0  0  0  0  0  0  0  0
   -3.0539    0.0788    0.0000 O   0  0  0  0  0  0  0  0  0  0  0  0
   -0.8889    1.3288    0.0000 N   0  0  0  0  0  0  0  0  0  0  0  0
  1  2  1  0  0  0  0
  2  3  1  0  0  0  0
  2  4  1  0  0  0  0
  1  5  2  0  0  0  0
  1  6  1  0  0  0  0
  2  7  1  0  0  0  0
M  END
> <#>
441

> <PLATE>
LAT006

> <ROW>
A

> <COL>
7

> <COORD>
A07

> <LATID>
LAT006A07

> <Supplier>
Sigma

> <Suplier_CAT#>
A-8379

> <Name>
Alpha-Aminoisobutyric Acid

> <Concentration_(mM)>
2.5

> <IC50_(µM)>
inactive

> <Yeast_Active?>
-

> <Pubchem_CID>
6119

$$$$
