
  -ISIS-  08130814242D

 28 31  0  0  0  0  0  0  0  0999 V2000
   -0.0333    0.3125    0.0000 C   0  0  3  0  0  0  0  0  0  0  0  0
   -0.0458   -1.6542    0.0000 N   0  0  3  0  0  0  0  0  0  0  0  0
    0.8375   -1.1542    0.0000 C   0  0  3  0  0  0  0  0  0  0  0  0
   -0.8833   -1.1792    0.0000 C   0  0  3  0  0  0  0  0  0  0  0  0
   -0.8833   -0.1792    0.0000 C   0  0  0  0  0  0  0  0  0  0  0  0
    0.8375   -0.1792    0.0000 C   0  0  0  0  0  0  0  0  0  0  0  0
   -0.9000    0.8208    0.0000 C   0  0  0  0  0  0  0  0  0  0  0  0
   -0.9000    1.8000    0.0000 C   0  0  0  0  0  0  0  0  0  0  0  0
   -1.7458   -1.6542    0.0000 C   0  0  0  0  0  0  0  0  0  0  0  0
    1.7000   -1.6542    0.0000 C   0  0  0  0  0  0  0  0  0  0  0  0
    0.7875    0.8208    0.0000 O   0  0  0  0  0  0  0  0  0  0  0  0
   -0.0458   -2.6542    0.0000 C   0  0  0  0  0  0  0  0  0  0  0  0
   -0.0208    2.2833    0.0000 O   0  0  0  0  0  0  0  0  0  0  0  0
   -1.7333    0.3333    0.0000 C   0  0  0  0  0  0  0  0  0  0  0  0
   -1.7333    2.3000    0.0000 C   0  0  0  0  0  0  0  0  0  0  0  0
    2.5542   -1.1792    0.0000 C   0  0  0  0  0  0  0  0  0  0  0  0
   -2.5833   -1.1792    0.0000 C   0  0  0  0  0  0  0  0  0  0  0  0
   -1.7458   -2.6542    0.0000 C   0  0  0  0  0  0  0  0  0  0  0  0
    1.7000   -2.6375    0.0000 C   0  0  0  0  0  0  0  0  0  0  0  0
    0.8292    1.7708    0.0000 C   0  0  0  0  0  0  0  0  0  0  0  0
   -2.6000    0.8208    0.0000 C   0  0  0  0  0  0  0  0  0  0  0  0
   -2.5833   -3.1375    0.0000 C   0  0  0  0  0  0  0  0  0  0  0  0
   -3.4458   -1.6542    0.0000 C   0  0  0  0  0  0  0  0  0  0  0  0
    3.4167   -1.6792    0.0000 C   0  0  0  0  0  0  0  0  0  0  0  0
   -2.6000    1.8000    0.0000 C   0  0  0  0  0  0  0  0  0  0  0  0
    2.5375   -3.1375    0.0000 C   0  0  0  0  0  0  0  0  0  0  0  0
   -3.4458   -2.6542    0.0000 C   0  0  0  0  0  0  0  0  0  0  0  0
    3.4000   -2.6542    0.0000 C   0  0  0  0  0  0  0  0  0  0  0  0
  2  3  1  0  0  0  0
  3  6  1  0  0  0  0
  4  5  1  0  0  0  0
  5  1  1  0  0  0  0
  6  1  1  0  0  0  0
  7  1  1  0  0  0  0
  8  7  2  0  0  0  0
  9  4  1  0  0  0  0
 10  3  1  0  0  0  0
 11  1  1  0  0  0  0
 12  2  1  0  0  0  0
 13  8  1  0  0  0  0
 14  7  1  0  0  0  0
 15  8  1  0  0  0  0
 16 10  2  0  0  0  0
 17  9  1  0  0  0  0
 18  9  2  0  0  0  0
 19 10  1  0  0  0  0
 20 13  1  0  0  0  0
 21 14  2  0  0  0  0
 22 18  1  0  0  0  0
 23 17  2  0  0  0  0
 24 16  1  0  0  0  0
 25 21  1  0  0  0  0
 26 19  2  0  0  0  0
 27 22  2  0  0  0  0
 28 26  1  0  0  0  0
  2  4  1  0  0  0  0
 15 25  2  0  0  0  0
 28 24  2  0  0  0  0
 23 27  1  0  0  0  0
M  END
> <#>
1802

> <PLATE>
LAT023

> <ROW>
B

> <COL>
7

> <COORD>
B07

> <LATID>
LAT023B07

> <Supplier>
Chembridge

> <Suplier_CAT#>
5616006

> <Name>
Novel

> <Sec_Name>
185_F09

> <Concentration_(mM)>
2.5

> <IC50_(µM)>
12

> <Yeast_Active?>
-

> <Pubchem_CID>
576236

$$$$
