
  -ISIS-  08130814242D

 26 28  0  0  0  0  0  0  0  0999 V2000
    1.6167    3.7125    0.0000 S   0  0  3  0  0  0  0  0  0  0  0  0
    2.3667    3.7125    0.0000 N   0  0  3  0  0  0  0  0  0  0  0  0
    3.4917    3.0625    0.0000 C   0  0  3  0  0  0  0  0  0  0  0  0
    3.8667    2.4125    0.0000 C   0  0  0  0  0  0  0  0  0  0  0  0
    2.7417    3.0625    0.0000 C   0  0  0  0  0  0  0  0  0  0  0  0
    1.4167    2.9875    0.0000 C   0  0  0  0  0  0  0  0  0  0  0  0
    1.6792    4.4542    0.0000 O   0  0  0  0  0  0  0  0  0  0  0  0
    0.8750    3.8458    0.0000 O   0  0  0  0  0  0  0  0  0  0  0  0
    4.6167    2.4125    0.0000 N   0  0  0  0  0  0  0  0  0  0  0  0
    6.1167    1.1125    0.0000 N   0  0  0  0  0  0  0  0  0  0  0  0
    3.4917    1.7625    0.0000 O   0  0  0  0  0  0  0  0  0  0  0  0
    0.6917    2.7958    0.0000 C   0  0  0  0  0  0  0  0  0  0  0  0
    1.9500    2.4583    0.0000 C   0  0  0  0  0  0  0  0  0  0  0  0
    4.9917    1.7625    0.0000 C   0  0  0  0  0  0  0  0  0  0  0  0
    5.7417    1.7625    0.0000 C   0  0  0  0  0  0  0  0  0  0  0  0
    2.7417    4.3542    0.0000 C   0  0  0  0  0  0  0  0  0  0  0  0
    1.0292    1.5375    0.0000 C   0  0  0  0  0  0  0  0  0  0  0  0
    1.7542    1.7333    0.0000 C   0  0  0  0  0  0  0  0  0  0  0  0
    0.5042    2.0708    0.0000 C   0  0  0  0  0  0  0  0  0  0  0  0
    0.8375    0.8125    0.0000 F   0  0  0  0  0  0  0  0  0  0  0  0
    3.8667    3.7125    0.0000 C   0  0  0  0  0  0  0  0  0  0  0  0
    3.4917    4.3542    0.0000 C   0  0  0  0  0  0  0  0  0  0  0  0
    6.8667    1.1125    0.0000 C   0  0  0  0  0  0  0  0  0  0  0  0
    6.1167    2.4125    0.0000 C   0  0  0  0  0  0  0  0  0  0  0  0
    7.2417    1.7625    0.0000 C   0  0  0  0  0  0  0  0  0  0  0  0
    6.8667    2.4125    0.0000 C   0  0  0  0  0  0  0  0  0  0  0  0
  2  1  1  0  0  0  0
  3  5  1  0  0  0  0
  4  3  1  0  0  0  0
  5  2  1  0  0  0  0
  6  1  1  0  0  0  0
  7  1  2  0  0  0  0
  8  1  2  0  0  0  0
  9  4  1  0  0  0  0
 10 15  2  0  0  0  0
 11  4  2  0  0  0  0
 12  6  2  0  0  0  0
 13  6  1  0  0  0  0
 14  9  1  0  0  0  0
 15 14  1  0  0  0  0
 16  2  1  0  0  0  0
 17 18  1  0  0  0  0
 18 13  2  0  0  0  0
 19 12  1  0  0  0  0
 20 17  1  0  0  0  0
 21 22  1  0  0  0  0
 22 16  1  0  0  0  0
 23 10  1  0  0  0  0
 24 15  1  0  0  0  0
 25 26  1  0  0  0  0
 26 24  2  0  0  0  0
 17 19  2  0  0  0  0
 21  3  1  0  0  0  0
 23 25  2  0  0  0  0
M  END
> <#>
1524

> <PLATE>
LAT020

> <ROW>
D

> <COL>
2

> <COORD>
D02

> <LATID>
LAT020D02

> <Supplier>
Chembridge

> <Suplier_CAT#>
7938765

> <Name>
Novel

> <Concentration_(mM)>
2.5

> <IC50_(µM)>
inactive

> <Yeast_Active?>
-

> <Pubchem_CID>
1266964

$$$$
