
  -ISIS-  08130814242D

 27 30  0  0  0  0  0  0  0  0999 V2000
    1.6292    0.7458    0.0000 N   0  0  3  0  0  0  0  0  0  0  0  0
    2.1125    0.0708    0.0000 C   0  0  0  0  0  0  0  0  0  0  0  0
    2.1125    1.4083    0.0000 C   0  0  0  0  0  0  0  0  0  0  0  0
    2.8917    1.1583    0.0000 N   0  0  3  0  0  0  0  0  0  0  0  0
    2.8917    0.3333    0.0000 N   0  0  3  0  0  0  0  0  0  0  0  0
    3.5625   -0.1542    0.0000 C   0  0  0  0  0  0  0  0  0  0  0  0
    3.5625    1.6375    0.0000 C   0  0  0  0  0  0  0  0  0  0  0  0
    1.8542    2.1958    0.0000 O   0  0  0  0  0  0  0  0  0  0  0  0
    1.8542   -0.7125    0.0000 O   0  0  0  0  0  0  0  0  0  0  0  0
    0.8042    0.7458    0.0000 C   0  0  0  0  0  0  0  0  0  0  0  0
    4.7917    2.3458    0.0000 N   0  0  0  0  0  0  0  0  0  0  0  0
    4.7917   -0.8667    0.0000 N   0  0  0  0  0  0  0  0  0  0  0  0
    4.3875    1.6375    0.0000 C   0  0  0  0  0  0  0  0  0  0  0  0
    4.3875   -0.1542    0.0000 C   0  0  0  0  0  0  0  0  0  0  0  0
    5.6125    2.3500    0.0000 C   0  0  0  0  0  0  0  0  0  0  0  0
    5.6167   -0.8667    0.0000 C   0  0  0  0  0  0  0  0  0  0  0  0
    0.3917    1.4583    0.0000 C   0  0  0  0  0  0  0  0  0  0  0  0
    0.3917    0.0333    0.0000 C   0  0  0  0  0  0  0  0  0  0  0  0
    4.8000    0.9250    0.0000 C   0  0  0  0  0  0  0  0  0  0  0  0
    4.7917    0.5583    0.0000 C   0  0  0  0  0  0  0  0  0  0  0  0
    6.0250   -0.1542    0.0000 C   0  0  0  0  0  0  0  0  0  0  0  0
    6.0292    1.6375    0.0000 C   0  0  0  0  0  0  0  0  0  0  0  0
   -0.4333    1.4500    0.0000 C   0  0  0  0  0  0  0  0  0  0  0  0
   -0.4333    0.0333    0.0000 C   0  0  0  0  0  0  0  0  0  0  0  0
    5.6042    0.5583    0.0000 C   0  0  0  0  0  0  0  0  0  0  0  0
    5.6167    0.9250    0.0000 C   0  0  0  0  0  0  0  0  0  0  0  0
   -0.8458    0.7375    0.0000 C   0  0  0  0  0  0  0  0  0  0  0  0
  2  1  1  0  0  0  0
  3  1  1  0  0  0  0
  4  3  1  0  0  0  0
  5  2  1  0  0  0  0
  6  5  1  0  0  0  0
  7  4  1  0  0  0  0
  8  3  2  0  0  0  0
  9  2  2  0  0  0  0
 10  1  1  0  0  0  0
 11 13  1  0  0  0  0
 12 14  2  0  0  0  0
 13  7  1  0  0  0  0
 14  6  1  0  0  0  0
 15 11  2  0  0  0  0
 16 12  1  0  0  0  0
 17 10  2  0  0  0  0
 18 10  1  0  0  0  0
 19 13  2  0  0  0  0
 20 14  1  0  0  0  0
 21 25  1  0  0  0  0
 22 26  2  0  0  0  0
 23 17  1  0  0  0  0
 24 18  2  0  0  0  0
 25 20  2  0  0  0  0
 26 19  1  0  0  0  0
 27 24  1  0  0  0  0
  4  5  1  0  0  0  0
 27 23  2  0  0  0  0
 22 15  1  0  0  0  0
 21 16  2  0  0  0  0
M  END
> <#>
1531

> <PLATE>
LAT020

> <ROW>
C

> <COL>
3

> <COORD>
C03

> <LATID>
LAT020C03

> <Supplier>
Chembridge

> <Suplier_CAT#>
7749099

> <Name>
Novel

> <Concentration_(mM)>
2.5

> <IC50_(µM)>
inactive

> <Yeast_Active?>
-

> <Pubchem_CID>
1089007

$$$$
