
  -ISIS-  08130814242D

 22 23  0  0  0  0  0  0  0  0999 V2000
    6.3667    1.5750    0.0000 C   0  0  0  0  0  0  0  0  0  0  0  0
    3.7750    1.5750    0.0000 C   0  0  0  0  0  0  0  0  0  0  0  0
    6.3667    2.3333    0.0000 C   0  0  3  0  0  0  0  0  0  0  0  0
    5.7167    1.2000    0.0000 C   0  0  0  0  0  0  0  0  0  0  0  0
    3.1250    1.2000    0.0000 N   0  0  0  0  0  0  0  0  0  0  0  0
    5.0750    1.5750    0.0000 O   0  0  0  0  0  0  0  0  0  0  0  0
    1.1750    1.5750    0.0000 N   0  0  0  0  0  0  0  0  0  0  0  0
    3.7750    2.3333    0.0000 O   0  0  0  0  0  0  0  0  0  0  0  0
    4.4250    1.2000    0.0000 C   0  0  0  0  0  0  0  0  0  0  0  0
    1.8250    1.2000    0.0000 C   0  0  0  0  0  0  0  0  0  0  0  0
    2.4750    1.5750    0.0000 C   0  0  0  0  0  0  0  0  0  0  0  0
    7.0167    1.2000    0.0000 C   0  0  0  0  0  0  0  0  0  0  0  0
    7.0917    2.5208    0.0000 C   0  0  0  0  0  0  0  0  0  0  0  0
    6.2417    3.0625    0.0000 C   0  0  0  0  0  0  0  0  0  0  0  0
    5.6250    2.2583    0.0000 C   0  0  0  0  0  0  0  0  0  0  0  0
    0.5250    1.2000    0.0000 C   0  0  0  0  0  0  0  0  0  0  0  0
    5.7167    0.4500    0.0000 C   0  0  0  0  0  0  0  0  0  0  0  0
    1.8250    0.4500    0.0000 C   0  0  0  0  0  0  0  0  0  0  0  0
    7.0167    0.4500    0.0000 C   0  0  0  0  0  0  0  0  0  0  0  0
    0.5250    0.4500    0.0000 C   0  0  0  0  0  0  0  0  0  0  0  0
    6.3667    0.0750    0.0000 C   0  0  0  0  0  0  0  0  0  0  0  0
    1.1750    0.0750    0.0000 C   0  0  0  0  0  0  0  0  0  0  0  0
  2  9  1  0  0  0  0
  3  1  1  0  0  0  0
  4  1  1  0  0  0  0
  5  2  1  0  0  0  0
  6  4  1  0  0  0  0
  7 10  1  0  0  0  0
  8  2  2  0  0  0  0
  9  6  1  0  0  0  0
 10 11  1  0  0  0  0
 11  5  1  0  0  0  0
 12  1  2  0  0  0  0
 13  3  1  0  0  0  0
 14  3  1  0  0  0  0
 15  3  1  0  0  0  0
 16  7  2  0  0  0  0
 17  4  2  0  0  0  0
 18 10  2  0  0  0  0
 19 12  1  0  0  0  0
 20 22  2  0  0  0  0
 21 19  2  0  0  0  0
 22 18  1  0  0  0  0
 17 21  1  0  0  0  0
 20 16  1  0  0  0  0
M  END
> <#>
1417

> <PLATE>
LAT018

> <ROW>
A

> <COL>
9

> <COORD>
A09

> <LATID>
LAT018A09

> <Supplier>
Chembridge

> <Suplier_CAT#>
9059463

> <Name>
Novel

> <Concentration_(mM)>
2.5

> <IC50_(µM)>
93

> <Yeast_Active?>
-

> <Pubchem_CID>
6471723

$$$$
