
  -ISIS-  08130814242D

 24 26  0  0  0  0  0  0  0  0999 V2000
   -1.6458   -0.7042    0.0000 N   0  0  3  0  0  0  0  0  0  0  0  0
   -1.6458   -0.1500    0.0000 C   0  0  0  0  0  0  0  0  0  0  0  0
   -2.1000   -0.9667    0.0000 C   0  0  0  0  0  0  0  0  0  0  0  0
   -2.1000    0.1333    0.0000 N   0  0  0  0  0  0  0  0  0  0  0  0
   -2.5625   -0.6875    0.0000 C   0  0  0  0  0  0  0  0  0  0  0  0
   -2.5625   -0.1500    0.0000 C   0  0  0  0  0  0  0  0  0  0  0  0
   -1.1833    0.1500    0.0000 S   0  0  0  0  0  0  0  0  0  0  0  0
   -1.1958   -1.0000    0.0000 C   0  0  0  0  0  0  0  0  0  0  0  0
   -2.1000   -1.5042    0.0000 O   0  0  0  0  0  0  0  0  0  0  0  0
   -0.7208    0.9500    0.0000 C   0  0  0  0  0  0  0  0  0  0  0  0
   -0.2625    0.6708    0.0000 O   0  0  0  0  0  0  0  0  0  0  0  0
   -1.1833    0.6708    0.0000 C   0  0  0  0  0  0  0  0  0  0  0  0
   -3.0208   -0.9667    0.0000 C   0  0  0  0  0  0  0  0  0  0  0  0
   -0.7458    1.4958    0.0000 O   0  0  0  0  0  0  0  0  0  0  0  0
   -0.7208   -0.7542    0.0000 C   0  0  3  0  0  0  0  0  0  0  0  0
   -3.0208    0.1333    0.0000 C   0  0  0  0  0  0  0  0  0  0  0  0
   -0.2833    1.7500    0.0000 C   0  0  0  0  0  0  0  0  0  0  0  0
   -0.2708   -1.0042    0.0000 C   0  0  0  0  0  0  0  0  0  0  0  0
   -0.6500   -0.2375    0.0000 C   0  0  0  0  0  0  0  0  0  0  0  0
   -3.5000   -0.7042    0.0000 C   0  0  0  0  0  0  0  0  0  0  0  0
   -3.5000   -0.1500    0.0000 C   0  0  0  0  0  0  0  0  0  0  0  0
   -0.2833    2.2958    0.0000 C   0  0  0  0  0  0  0  0  0  0  0  0
    0.1292   -0.6375    0.0000 C   0  0  0  0  0  0  0  0  0  0  0  0
   -0.1125   -0.1542    0.0000 C   0  0  0  0  0  0  0  0  0  0  0  0
  2  1  1  0  0  0  0
  3  1  1  0  0  0  0
  4  2  2  0  0  0  0
  5  3  1  0  0  0  0
  6  5  2  0  0  0  0
  7  2  1  0  0  0  0
  8  1  1  0  0  0  0
  9  3  2  0  0  0  0
 10 12  1  0  0  0  0
 11 10  2  0  0  0  0
 12  7  1  0  0  0  0
 13  5  1  0  0  0  0
 14 10  1  0  0  0  0
 15  8  1  0  0  0  0
 16  6  1  0  0  0  0
 17 14  1  0  0  0  0
 18 15  1  0  0  0  0
 19 15  1  0  0  0  0
 20 13  2  0  0  0  0
 21 20  1  0  0  0  0
 22 17  1  0  0  0  0
 23 18  1  0  0  0  0
 24 19  1  0  0  0  0
  6  4  1  0  0  0  0
 23 24  1  0  0  0  0
 16 21  2  0  0  0  0
M  END
> <#>
1852

> <PLATE>
LAT024

> <ROW>
D

> <COL>
3

> <COORD>
D03

> <LATID>
LAT024D03

> <Supplier>
Chembridge

> <Suplier_CAT#>
5727885

> <Name>
Novel

> <Sec_Name>
229_G10

> <Concentration_(mM)>
2.5

> <IC50_(µM)>
15

> <Yeast_Active?>
-

> <Pubchem_CID>
791484

$$$$
