
  -ISIS-  08130814242D

 31 34  0  0  0  0  0  0  0  0999 V2000
    7.1542    1.7833    0.0000 C   0  0  0  0  0  0  0  0  0  0  0  0
    6.7167    2.3958    0.0000 N   0  0  3  0  0  0  0  0  0  0  0  0
    6.7167    1.1750    0.0000 N   0  0  0  0  0  0  0  0  0  0  0  0
    7.9042    1.7833    0.0000 C   0  0  0  0  0  0  0  0  0  0  0  0
    6.0042    2.1583    0.0000 C   0  0  0  0  0  0  0  0  0  0  0  0
    6.0042    1.4083    0.0000 N   0  0  0  0  0  0  0  0  0  0  0  0
    5.3917    2.5958    0.0000 S   0  0  0  0  0  0  0  0  0  0  0  0
    8.2792    1.1333    0.0000 C   0  0  0  0  0  0  0  0  0  0  0  0
    6.9500    3.1083    0.0000 C   0  0  0  0  0  0  0  0  0  0  0  0
    8.2792    2.4333    0.0000 C   0  0  0  0  0  0  0  0  0  0  0  0
    4.1042    2.7333    0.0000 C   0  0  0  0  0  0  0  0  0  0  0  0
    3.4167    2.4333    0.0000 N   0  0  0  0  0  0  0  0  0  0  0  0
    4.1792    3.4833    0.0000 O   0  0  0  0  0  0  0  0  0  0  0  0
    4.7125    2.2958    0.0000 C   0  0  0  0  0  0  0  0  0  0  0  0
    9.0292    1.1333    0.0000 C   0  0  0  0  0  0  0  0  0  0  0  0
    9.0292    2.4333    0.0000 C   0  0  0  0  0  0  0  0  0  0  0  0
    2.8125    2.8708    0.0000 C   0  0  0  0  0  0  0  0  0  0  0  0
    9.4042    1.7833    0.0000 C   0  0  0  0  0  0  0  0  0  0  0  0
    7.9042    0.4833    0.0000 O   0  0  0  0  0  0  0  0  0  0  0  0
    9.4042    3.0833    0.0000 Br  0  0  0  0  0  0  0  0  0  0  0  0
    2.1292    2.5625    0.0000 C   0  0  0  0  0  0  0  0  0  0  0  0
    7.6792    3.2583    0.0000 C   0  0  0  0  0  0  0  0  0  0  0  0
    6.4417    3.6583    0.0000 C   0  0  0  0  0  0  0  0  0  0  0  0
    1.5167    3.0083    0.0000 C   0  0  0  0  0  0  0  0  0  0  0  0
    2.0500    1.8208    0.0000 C   0  0  0  0  0  0  0  0  0  0  0  0
    6.6792    4.3667    0.0000 C   0  0  0  0  0  0  0  0  0  0  0  0
    7.9167    3.9708    0.0000 C   0  0  0  0  0  0  0  0  0  0  0  0
    0.8375    2.7083    0.0000 C   0  0  0  0  0  0  0  0  0  0  0  0
    1.3667    1.5125    0.0000 C   0  0  0  0  0  0  0  0  0  0  0  0
    7.4125    4.5250    0.0000 C   0  0  0  0  0  0  0  0  0  0  0  0
    0.7542    1.9583    0.0000 C   0  0  0  0  0  0  0  0  0  0  0  0
  2  1  1  0  0  0  0
  3  1  2  0  0  0  0
  4  1  1  0  0  0  0
  5  2  1  0  0  0  0
  6  3  1  0  0  0  0
  7  5  1  0  0  0  0
  8  4  2  0  0  0  0
  9  2  1  0  0  0  0
 10  4  1  0  0  0  0
 11 14  1  0  0  0  0
 12 11  1  0  0  0  0
 13 11  2  0  0  0  0
 14  7  1  0  0  0  0
 15  8  1  0  0  0  0
 16 10  2  0  0  0  0
 17 12  1  0  0  0  0
 18 16  1  0  0  0  0
 19  8  1  0  0  0  0
 20 16  1  0  0  0  0
 21 17  1  0  0  0  0
 22  9  1  0  0  0  0
 23  9  2  0  0  0  0
 24 21  1  0  0  0  0
 25 21  2  0  0  0  0
 26 23  1  0  0  0  0
 27 22  2  0  0  0  0
 28 24  2  0  0  0  0
 29 25  1  0  0  0  0
 30 26  2  0  0  0  0
 31 29  2  0  0  0  0
  6  5  2  0  0  0  0
 18 15  2  0  0  0  0
 30 27  1  0  0  0  0
 28 31  1  0  0  0  0
M  END
> <#>
1714

> <PLATE>
LAT022

> <ROW>
B

> <COL>
6

> <COORD>
B06

> <LATID>
LAT022B06

> <Supplier>
Chembridge

> <Suplier_CAT#>
7963653

> <Name>
Novel

> <Concentration_(mM)>
2.5

> <IC50_(µM)>
inactive

> <Yeast_Active?>
-

> <Pubchem_CID>
NULL

$$$$
