
  -ISIS-  08130814242D

 18 18  0  0  0  0  0  0  0  0999 V2000
   -0.4625   -2.6417    0.0000 N   0  3  3  0  0  0  0  0  0  0  0  0
    0.2542   -0.5667    0.0000 C   0  0  0  0  0  0  0  0  0  0  0  0
    0.2500   -1.4042    0.0000 C   0  0  0  0  0  0  0  0  0  0  0  0
   -0.4625   -0.1417    0.0000 C   0  0  0  0  0  0  0  0  0  0  0  0
   -0.4625   -1.8167    0.0000 C   0  0  0  0  0  0  0  0  0  0  0  0
    0.9667   -0.1542    0.0000 O   0  0  0  0  0  0  0  0  0  0  0  0
   -1.1750   -0.5542    0.0000 C   0  0  0  0  0  0  0  0  0  0  0  0
   -0.4625    0.6875    0.0000 C   0  0  0  0  0  0  0  0  0  0  0  0
   -1.8958    0.6875    0.0000 C   0  0  0  0  0  0  0  0  0  0  0  0
   -1.8958   -0.1417    0.0000 C   0  0  0  0  0  0  0  0  0  0  0  0
   -1.1750    1.1000    0.0000 C   0  0  0  0  0  0  0  0  0  0  0  0
   -1.1750   -3.0542    0.0000 C   0  0  0  0  0  0  0  0  0  0  0  0
    0.2542   -3.0542    0.0000 C   0  0  0  0  0  0  0  0  0  0  0  0
   -2.6125    1.1083    0.0000 O   0  0  0  0  0  0  0  0  0  0  0  0
    0.2542   -3.8792    0.0000 C   0  0  0  0  0  0  0  0  0  0  0  0
   -1.1750   -3.8792    0.0000 C   0  0  0  0  0  0  0  0  0  0  0  0
   -0.4625   -4.2917    0.0000 C   0  0  0  0  0  0  0  0  0  0  0  0
   -2.6958   -1.6167    0.0000 Cl  0  5  0  0  0  0  0  0  0  0  0  0
  2  3  1  0  0  0  0
  3  5  1  0  0  0  0
  4  2  1  0  0  0  0
  5  1  1  0  0  0  0
  6  2  2  0  0  0  0
  7  4  1  0  0  0  0
  8  4  2  0  0  0  0
  9 11  2  0  0  0  0
 10  7  2  0  0  0  0
 11  8  1  0  0  0  0
 12  1  1  0  0  0  0
 13  1  1  0  0  0  0
 14  9  1  0  0  0  0
 15 13  1  0  0  0  0
 16 12  1  0  0  0  0
 17 15  1  0  0  0  0
 16 17  1  0  0  0  0
 10  9  1  0  0  0  0
M  CHG  2   1   1  18  -1
M  END
> <#>
1258

> <PLATE>
LAT016

> <ROW>
B

> <COL>
9

> <COORD>
B09

> <LATID>
LAT016B09

> <Supplier>
Chembridge

> <Suplier_CAT#>
6433097

> <Name>
Novel

> <Concentration_(mM)>
2.5

> <IC50_(µM)>
inactive

> <Yeast_Active?>
-

> <Pubchem_CID>
347164

$$$$
