
  -ISIS-  08130814242D

  8  7  0  0  0  0  0  0  0  0999 V2000
    6.9470   -1.7383    0.0000 O   0  0  0  0  0  0  0  0  0  0  0  0
    6.5009   -2.5111    0.0000 C   0  0  0  0  0  0  0  0  0  0  0  0
    6.9470   -3.2839    0.0000 C   0  0  2  0  0  0  0  0  0  0  0  0
    7.8394   -3.2839    0.0000 O   0  0  0  0  0  0  0  0  0  0  0  0
    6.5009   -4.0566    0.0000 C   0  0  1  0  0  0  0  0  0  0  0  0
    5.6086   -4.0566    0.0000 O   0  0  0  0  0  0  0  0  0  0  0  0
    6.9470   -4.8294    0.0000 C   0  0  0  0  0  0  0  0  0  0  0  0
    7.8394   -4.8294    0.0000 O   0  0  0  0  0  0  0  0  0  0  0  0
  1  2  1  0  0  0  0
  2  3  1  0  0  0  0
  3  4  1  6  0  0  0
  3  5  1  0  0  0  0
  5  6  1  6  0  0  0
  5  7  1  0  0  0  0
  7  8  1  0  0  0  0
M  END
> <#>
477

> <PLATE>
LAT006

> <ROW>
E

> <COL>
11

> <COORD>
E11

> <LATID>
LAT006E11

> <Supplier>
Sigma

> <Suplier_CAT#>
T-1658

> <Name>
L-Threitol

> <Concentration_(mM)>
2.5

> <IC50_(µM)>
inactive

> <Yeast_Active?>
-

> <Pubchem_CID>
8998

$$$$
