
  -ISIS-  08130814242D

 23 24  0  0  0  0  0  0  0  0999 V2000
   -0.2833   -0.7375    0.0000 C   0  0  0  0  0  0  0  0  0  0  0  0
   -1.6000    0.0208    0.0000 C   0  0  0  0  0  0  0  0  0  0  0  0
   -0.7208    0.0208    0.0000 N   0  0  0  0  0  0  0  0  0  0  0  0
   -2.0458   -0.7375    0.0000 C   0  0  0  0  0  0  0  0  0  0  0  0
   -2.9208    0.8000    0.0000 C   0  0  0  0  0  0  0  0  0  0  0  0
   -2.0458    0.8000    0.0000 C   0  0  0  0  0  0  0  0  0  0  0  0
   -2.9208   -0.7375    0.0000 C   0  0  0  0  0  0  0  0  0  0  0  0
   -3.3625    0.0208    0.0000 C   0  0  0  0  0  0  0  0  0  0  0  0
    0.6000   -0.7375    0.0000 C   0  0  3  0  0  0  0  0  0  0  0  0
    1.0375   -1.5000    0.0000 O   0  0  0  0  0  0  0  0  0  0  0  0
   -0.7208   -1.5000    0.0000 O   0  0  0  0  0  0  0  0  0  0  0  0
   -3.3458   -1.5000    0.0000 Cl  0  0  0  0  0  0  0  0  0  0  0  0
    1.9167   -1.5000    0.0000 C   0  0  0  0  0  0  0  0  0  0  0  0
   -1.5958    1.5500    0.0000 O   0  0  0  0  0  0  0  0  0  0  0  0
   -4.2333    0.0208    0.0000 O   0  0  0  0  0  0  0  0  0  0  0  0
    1.0375    0.0208    0.0000 C   0  0  0  0  0  0  0  0  0  0  0  0
    2.3542   -2.2542    0.0000 C   0  0  0  0  0  0  0  0  0  0  0  0
    2.3542   -0.7375    0.0000 C   0  0  0  0  0  0  0  0  0  0  0  0
   -2.0208    2.3125    0.0000 C   0  0  0  0  0  0  0  0  0  0  0  0
   -4.6625   -0.7500    0.0000 C   0  0  0  0  0  0  0  0  0  0  0  0
    3.2375   -2.2542    0.0000 C   0  0  0  0  0  0  0  0  0  0  0  0
    3.2375   -0.7375    0.0000 C   0  0  0  0  0  0  0  0  0  0  0  0
    3.6792   -1.5000    0.0000 C   0  0  0  0  0  0  0  0  0  0  0  0
  2  3  1  0  0  0  0
  3  1  1  0  0  0  0
  4  2  2  0  0  0  0
  5  6  2  0  0  0  0
  6  2  1  0  0  0  0
  7  4  1  0  0  0  0
  8  5  1  0  0  0  0
  9  1  1  0  0  0  0
 10  9  1  0  0  0  0
 11  1  2  0  0  0  0
 12  7  1  0  0  0  0
 13 10  1  0  0  0  0
 14  6  1  0  0  0  0
 15  8  1  0  0  0  0
 16  9  1  0  0  0  0
 17 13  1  0  0  0  0
 18 13  2  0  0  0  0
 19 14  1  0  0  0  0
 20 15  1  0  0  0  0
 21 17  2  0  0  0  0
 22 18  1  0  0  0  0
 23 22  2  0  0  0  0
  7  8  2  0  0  0  0
 23 21  1  0  0  0  0
M  END
> <#>
1804

> <PLATE>
LAT023

> <ROW>
D

> <COL>
7

> <COORD>
D07

> <LATID>
LAT023D07

> <Supplier>
Chembridge

> <Suplier_CAT#>
5627285

> <Name>
Novel

> <Sec_Name>
190_H09

> <Concentration_(mM)>
2.5

> <IC50_(µM)>
12

> <Yeast_Active?>
-

> <Pubchem_CID>
835814

$$$$
