
  -ISIS-  08130814242D

 32 35  0  0  0  0  0  0  0  0999 V2000
    0.9000    1.0333    0.0000 C   0  0  0  0  0  0  0  0  0  0  0  0
   -0.1000    1.6208    0.0000 C   0  0  0  0  0  0  0  0  0  0  0  0
    0.5792    1.6208    0.0000 C   0  0  3  0  0  0  0  0  0  0  0  0
   -0.4458    1.0333    0.0000 C   0  0  0  0  0  0  0  0  0  0  0  0
    0.5792    0.4500    0.0000 C   0  0  0  0  0  0  0  0  0  0  0  0
   -0.1000    0.4500    0.0000 N   0  0  0  0  0  0  0  0  0  0  0  0
    0.4000    3.6333    0.0000 N   0  3  0  0  0  0  0  0  0  0  0  0
   -0.4458    2.1958    0.0000 C   0  0  0  0  0  0  0  0  0  0  0  0
    1.3875    3.0458    0.0000 C   0  0  0  0  0  0  0  0  0  0  0  0
    1.0792    3.6125    0.0000 C   0  0  0  0  0  0  0  0  0  0  0  0
    1.5792    1.0333    0.0000 C   0  0  0  0  0  0  0  0  0  0  0  0
   -1.1125    1.0333    0.0000 C   0  0  0  0  0  0  0  0  0  0  0  0
   -1.4500    1.6208    0.0000 C   0  0  3  0  0  0  0  0  0  0  0  0
   -1.1125    2.1958    0.0000 C   0  0  0  0  0  0  0  0  0  0  0  0
    0.0667    4.2167    0.0000 O   0  5  0  0  0  0  0  0  0  0  0  0
    0.0500    3.0208    0.0000 O   0  0  0  0  0  0  0  0  0  0  0  0
   -0.1208    2.7708    0.0000 O   0  0  0  0  0  0  0  0  0  0  0  0
    1.9042    1.6208    0.0000 O   0  0  0  0  0  0  0  0  0  0  0  0
   -2.1125    1.6208    0.0000 C   0  0  0  0  0  0  0  0  0  0  0  0
    1.9042    0.4125    0.0000 O   0  0  0  0  0  0  0  0  0  0  0  0
    0.9167   -0.1292    0.0000 C   0  0  0  0  0  0  0  0  0  0  0  0
    2.0792    3.0458    0.0000 C   0  0  0  0  0  0  0  0  0  0  0  0
    1.3875    4.1792    0.0000 C   0  0  0  0  0  0  0  0  0  0  0  0
   -2.4500    2.1958    0.0000 C   0  0  0  0  0  0  0  0  0  0  0  0
   -2.4500    1.0333    0.0000 C   0  0  0  0  0  0  0  0  0  0  0  0
    2.5792    0.4125    0.0000 C   0  0  0  0  0  0  0  0  0  0  0  0
    2.4000    3.6125    0.0000 C   0  0  0  0  0  0  0  0  0  0  0  0
    2.0792    4.1792    0.0000 C   0  0  0  0  0  0  0  0  0  0  0  0
    2.9042   -0.1792    0.0000 C   0  0  0  0  0  0  0  0  0  0  0  0
   -3.1208    1.0333    0.0000 C   0  0  0  0  0  0  0  0  0  0  0  0
   -3.1208    2.1958    0.0000 C   0  0  0  0  0  0  0  0  0  0  0  0
   -3.4625    1.6208    0.0000 C   0  0  0  0  0  0  0  0  0  0  0  0
  2  3  1  0  0  0  0
  3  1  1  0  0  0  0
  4  6  1  0  0  0  0
  5  1  2  0  0  0  0
  6  5  1  0  0  0  0
  7 10  1  0  0  0  0
  8  2  1  0  0  0  0
  9  3  1  0  0  0  0
 10  9  1  0  0  0  0
 11  1  1  0  0  0  0
 12  4  1  0  0  0  0
 13 12  1  0  0  0  0
 14  8  1  0  0  0  0
 15  7  1  0  0  0  0
 16  7  2  0  0  0  0
 17  8  2  0  0  0  0
 18 11  2  0  0  0  0
 19 13  1  0  0  0  0
 20 11  1  0  0  0  0
 21  5  1  0  0  0  0
 22  9  2  0  0  0  0
 23 10  2  0  0  0  0
 24 19  2  0  0  0  0
 25 19  1  0  0  0  0
 26 20  1  0  0  0  0
 27 22  1  0  0  0  0
 28 27  2  0  0  0  0
 29 26  1  0  0  0  0
 30 25  2  0  0  0  0
 31 24  1  0  0  0  0
 32 30  1  0  0  0  0
  2  4  2  0  0  0  0
 14 13  1  0  0  0  0
 23 28  1  0  0  0  0
 32 31  2  0  0  0  0
M  CHG  2   7   1  15  -1
M  END
> <#>
980

> <PLATE>
LAT013

> <ROW>
D

> <COL>
4

> <COORD>
D04

> <LATID>
LAT013D04

> <Supplier>
Chembridge

> <Suplier_CAT#>
5713841

> <Name>
Novel

> <Sec_Name>
228_D04

> <Concentration_(mM)>
2.5

> <IC50_(µM)>
>100

> <Yeast_Active?>
-

> <Pubchem_CID>
1360093

$$$$
