
  -ISIS-  08130814242D

 10  9  0  0  0  0  0  0  0  0999 V2000
    4.8667   -1.3875    0.0000 P   0  0  3  0  0  0  0  0  0  0  0  0
    4.1500   -0.9750    0.0000 O   0  0  0  0  0  0  0  0  0  0  0  0
    2.0167   -1.3917    0.0000 C   0  0  0  0  0  0  0  0  0  0  0  0
    4.1542   -1.8000    0.0000 C   0  0  0  0  0  0  0  0  0  0  0  0
    3.4417   -1.3917    0.0000 N   0  0  0  0  0  0  0  0  0  0  0  0
    2.0042   -0.5667    0.0000 O   0  0  0  0  0  0  0  0  0  0  0  0
    4.8625   -0.5625    0.0000 O   0  0  0  0  0  0  0  0  0  0  0  0
    5.5792   -1.7917    0.0000 O   0  0  0  0  0  0  0  0  0  0  0  0
    1.3042   -1.8042    0.0000 O   0  0  0  0  0  0  0  0  0  0  0  0
    2.7292   -1.8042    0.0000 C   0  0  0  0  0  0  0  0  0  0  0  0
  2  1  2  0  0  0  0
  3 10  1  0  0  0  0
  4  1  1  0  0  0  0
  5  4  1  0  0  0  0
  6  3  2  0  0  0  0
  7  1  1  0  0  0  0
  8  1  1  0  0  0  0
  9  3  1  0  0  0  0
 10  5  1  0  0  0  0
M  END
> <#>
189

> <PLATE>
LAT003

> <ROW>
E

> <COL>
5

> <COORD>
E05

> <LATID>
LAT003E05

> <Supplier>
Microsource

> <Suplier_CAT#>
00330047

> <Name>
Glyphosate

> <Concentration_(mM)>
2.5

> <IC50_(µM)>
inactive

> <Yeast_Active?>
-

> <Pubchem_CID>
3496

> <Description>
Herbicide

> <Comment>
EPSP synthase inhibitor

$$$$
