
  -ISIS-  08130814242D

 31 34  0  0  0  0  0  0  0  0999 V2000
    6.6750    1.8708    0.0000 N   0  0  3  0  0  0  0  0  0  0  0  0
    6.0250    2.2458    0.0000 C   0  0  0  0  0  0  0  0  0  0  0  0
    6.6750    1.1208    0.0000 C   0  0  0  0  0  0  0  0  0  0  0  0
    7.3875    2.1000    0.0000 N   0  0  0  0  0  0  0  0  0  0  0  0
    7.8292    1.4958    0.0000 C   0  0  0  0  0  0  0  0  0  0  0  0
    7.3875    0.8833    0.0000 C   0  0  0  0  0  0  0  0  0  0  0  0
    6.0250    0.7458    0.0000 N   0  0  0  0  0  0  0  0  0  0  0  0
    5.3750    1.8708    0.0000 C   0  0  0  0  0  0  0  0  0  0  0  0
    5.3750    1.1208    0.0000 C   0  0  0  0  0  0  0  0  0  0  0  0
    6.0250    2.9958    0.0000 C   0  0  3  0  0  0  0  0  0  0  0  0
    8.5792    1.4958    0.0000 C   0  0  0  0  0  0  0  0  0  0  0  0
    4.7250    0.7458    0.0000 C   0  0  0  0  0  0  0  0  0  0  0  0
    8.9542    0.8458    0.0000 N   0  0  0  0  0  0  0  0  0  0  0  0
    9.7042   -0.4542    0.0000 N   0  0  0  0  0  0  0  0  0  0  0  0
    8.9542    2.1458    0.0000 O   0  0  0  0  0  0  0  0  0  0  0  0
    4.0750    1.1208    0.0000 C   0  0  0  0  0  0  0  0  0  0  0  0
    5.3000    3.1875    0.0000 F   0  0  0  0  0  0  0  0  0  0  0  0
    6.7667    2.9250    0.0000 F   0  0  0  0  0  0  0  0  0  0  0  0
    6.1542    3.7333    0.0000 F   0  0  0  0  0  0  0  0  0  0  0  0
    9.7042    0.8458    0.0000 C   0  0  0  0  0  0  0  0  0  0  0  0
   10.0792    0.1958    0.0000 C   0  0  0  0  0  0  0  0  0  0  0  0
    3.4292    0.7458    0.0000 C   0  0  0  0  0  0  0  0  0  0  0  0
    2.7792    1.1208    0.0000 O   0  0  0  0  0  0  0  0  0  0  0  0
    4.7250   -0.0042    0.0000 C   0  0  0  0  0  0  0  0  0  0  0  0
    4.0750   -0.3792    0.0000 C   0  0  0  0  0  0  0  0  0  0  0  0
   10.0792   -1.1042    0.0000 C   0  0  0  0  0  0  0  0  0  0  0  0
    3.4292   -0.0042    0.0000 C   0  0  0  0  0  0  0  0  0  0  0  0
   10.8292    0.1958    0.0000 C   0  0  0  0  0  0  0  0  0  0  0  0
    2.1292    0.7458    0.0000 C   0  0  0  0  0  0  0  0  0  0  0  0
   10.8292   -1.1042    0.0000 C   0  0  0  0  0  0  0  0  0  0  0  0
   11.2042   -0.4542    0.0000 C   0  0  0  0  0  0  0  0  0  0  0  0
  2  1  1  0  0  0  0
  3  1  1  0  0  0  0
  4  1  1  0  0  0  0
  5  4  2  0  0  0  0
  6  3  2  0  0  0  0
  7  3  1  0  0  0  0
  8  2  2  0  0  0  0
  9  7  2  0  0  0  0
 10  2  1  0  0  0  0
 11  5  1  0  0  0  0
 12  9  1  0  0  0  0
 13 11  1  0  0  0  0
 14 21  2  0  0  0  0
 15 11  2  0  0  0  0
 16 12  1  0  0  0  0
 17 10  1  0  0  0  0
 18 10  1  0  0  0  0
 19 10  1  0  0  0  0
 20 13  1  0  0  0  0
 21 20  1  0  0  0  0
 22 16  2  0  0  0  0
 23 22  1  0  0  0  0
 24 12  2  0  0  0  0
 25 24  1  0  0  0  0
 26 14  1  0  0  0  0
 27 25  2  0  0  0  0
 28 21  1  0  0  0  0
 29 23  1  0  0  0  0
 30 31  1  0  0  0  0
 31 28  2  0  0  0  0
  5  6  1  0  0  0  0
  8  9  1  0  0  0  0
 22 27  1  0  0  0  0
 30 26  2  0  0  0  0
M  END
> <#>
1485

> <PLATE>
LAT019

> <ROW>
E

> <COL>
7

> <COORD>
E07

> <LATID>
LAT019E07

> <Supplier>
Chembridge

> <Suplier_CAT#>
7958723

> <Name>
Novel

> <Concentration_(mM)>
2.5

> <IC50_(µM)>
inactive

> <Yeast_Active?>
-

> <Pubchem_CID>
2229062

$$$$
