
  -ISIS-  08130814242D

 20 21  0  0  0  0  0  0  0  0999 V2000
   -2.4625    1.5458    0.0000 C   0  0  0  0  0  0  0  0  0  0  0  0
   -1.8208    1.1625    0.0000 N   0  0  0  0  0  0  0  0  0  0  0  0
   -2.4625    2.2833    0.0000 O   0  0  0  0  0  0  0  0  0  0  0  0
   -3.7833    1.5458    0.0000 O   0  0  0  0  0  0  0  0  0  0  0  0
   -1.1833    1.5208    0.0000 C   0  0  0  0  0  0  0  0  0  0  0  0
   -3.1208    1.1625    0.0000 C   0  0  0  0  0  0  0  0  0  0  0  0
   -4.4458    1.1458    0.0000 C   0  0  0  0  0  0  0  0  0  0  0  0
   -5.7208    0.4000    0.0000 C   0  0  0  0  0  0  0  0  0  0  0  0
   -6.3542    0.0458    0.0000 Cl  0  0  0  0  0  0  0  0  0  0  0  0
    0.1000    2.2708    0.0000 C   0  0  0  0  0  0  0  0  0  0  0  0
   -0.5458    1.1625    0.0000 C   0  0  0  0  0  0  0  0  0  0  0  0
   -1.1833    2.2500    0.0000 C   0  0  0  0  0  0  0  0  0  0  0  0
   -4.4458    0.4000    0.0000 C   0  0  0  0  0  0  0  0  0  0  0  0
   -5.0833    1.5208    0.0000 C   0  0  0  0  0  0  0  0  0  0  0  0
   -5.7208    1.1458    0.0000 C   0  0  0  0  0  0  0  0  0  0  0  0
   -5.0833    0.0208    0.0000 C   0  0  0  0  0  0  0  0  0  0  0  0
   -0.5458    2.6208    0.0000 C   0  0  0  0  0  0  0  0  0  0  0  0
    0.1000    1.5208    0.0000 C   0  0  0  0  0  0  0  0  0  0  0  0
    0.7375    2.6458    0.0000 C   0  0  0  0  0  0  0  0  0  0  0  0
    1.3792    2.2833    0.0000 C   0  0  0  0  0  0  0  0  0  0  0  0
  2  1  1  0  0  0  0
  3  1  2  0  0  0  0
  4  6  1  0  0  0  0
  5  2  1  0  0  0  0
  6  1  1  0  0  0  0
  7  4  1  0  0  0  0
  8 15  2  0  0  0  0
  9  8  1  0  0  0  0
 10 17  1  0  0  0  0
 11  5  2  0  0  0  0
 12  5  1  0  0  0  0
 13  7  1  0  0  0  0
 14  7  2  0  0  0  0
 15 14  1  0  0  0  0
 16 13  2  0  0  0  0
 17 12  2  0  0  0  0
 18 11  1  0  0  0  0
 19 10  1  0  0  0  0
 20 19  1  0  0  0  0
 18 10  2  0  0  0  0
 16  8  1  0  0  0  0
M  END
> <#>
732

> <PLATE>
LAT010

> <ROW>
D

> <COL>
3

> <COORD>
D03

> <LATID>
LAT010D03

> <Supplier>
Chembridge

> <Suplier_CAT#>
5568586

> <Name>
Novel

> <Sec_Name>
174_F05

> <Concentration_(mM)>
2.5

> <IC50_(µM)>
0.17

> <Yeast_Active?>
-

> <Pubchem_CID>
NULL

$$$$
