
  -ISIS-  08130814242D

 25 25  0  0  0  0  0  0  0  0999 V2000
   -0.4958    2.5000    0.0000 C   0  0  0  0  0  0  0  0  0  0  0  0
   -1.1333    1.3625    0.0000 C   0  0  0  0  0  0  0  0  0  0  0  0
   -1.1333    2.1208    0.0000 C   0  0  0  0  0  0  0  0  0  0  0  0
    0.1875    1.3625    0.0000 C   0  0  0  0  0  0  0  0  0  0  0  0
    0.1875    2.1208    0.0000 C   0  0  0  0  0  0  0  0  0  0  0  0
   -0.4958    0.9833    0.0000 C   0  0  0  0  0  0  0  0  0  0  0  0
    0.8667    0.9833    0.0000 C   0  0  0  0  0  0  0  0  0  0  0  0
    1.5042    2.1458    0.0000 N   0  0  3  0  0  0  0  0  0  0  0  0
   -0.4958    3.2708    0.0000 C   0  0  3  0  0  0  0  0  0  0  0  0
   -1.8125    0.9833    0.0000 C   0  0  3  0  0  0  0  0  0  0  0  0
    1.5292    1.3833    0.0000 C   0  0  0  0  0  0  0  0  0  0  0  0
    0.8875    0.2208    0.0000 O   0  0  0  0  0  0  0  0  0  0  0  0
   -1.8125    2.5208    0.0000 O   0  0  0  0  0  0  0  0  0  0  0  0
    2.1500    2.5458    0.0000 C   0  0  0  0  0  0  0  0  0  0  0  0
    0.8500    2.5208    0.0000 C   0  0  0  0  0  0  0  0  0  0  0  0
   -2.4708    0.5833    0.0000 C   0  0  0  0  0  0  0  0  0  0  0  0
   -1.4125    0.3000    0.0000 C   0  0  0  0  0  0  0  0  0  0  0  0
   -0.4958    4.0167    0.0000 C   0  0  0  0  0  0  0  0  0  0  0  0
    0.2875    3.2708    0.0000 C   0  0  0  0  0  0  0  0  0  0  0  0
   -1.2500    3.2708    0.0000 C   0  0  0  0  0  0  0  0  0  0  0  0
   -2.1958    1.6458    0.0000 C   0  0  0  0  0  0  0  0  0  0  0  0
    2.1500    3.2833    0.0000 C   0  0  0  0  0  0  0  0  0  0  0  0
    0.8292    3.2833    0.0000 C   0  0  0  0  0  0  0  0  0  0  0  0
    1.4875    3.6708    0.0000 C   0  0  0  0  0  0  0  0  0  0  0  0
   -3.0000    3.2708    0.0000 Br  0  0  0  0  0  0  0  0  0  0  0  0
  2  3  1  0  0  0  0
  3  1  2  0  0  0  0
  4  5  2  0  0  0  0
  5  1  1  0  0  0  0
  6  4  1  0  0  0  0
  7  4  1  0  0  0  0
  8 11  1  0  0  0  0
  9  1  1  0  0  0  0
 10  2  1  0  0  0  0
 11  7  1  0  0  0  0
 12  7  2  0  0  0  0
 13  3  1  0  0  0  0
 14  8  1  0  0  0  0
 15  8  1  0  0  0  0
 16 10  1  0  0  0  0
 17 10  1  0  0  0  0
 18  9  1  0  0  0  0
 19  9  1  0  0  0  0
 20  9  1  0  0  0  0
 21 10  1  0  0  0  0
 22 14  1  0  0  0  0
 23 15  1  0  0  0  0
 24 23  1  0  0  0  0
  2  6  2  0  0  0  0
 22 24  1  0  0  0  0
M  END
> <#>
1372

> <PLATE>
LAT018

> <ROW>
D

> <COL>
3

> <COORD>
D03

> <LATID>
LAT018D03

> <Supplier>
Chembridge

> <Suplier_CAT#>
7367412

> <Name>
Novel

> <Concentration_(mM)>
2.5

> <IC50_(µM)>
>100

> <Yeast_Active?>
-

> <Pubchem_CID>
888986

$$$$
