
  -ISIS-  08130814242D

 21 23  0  0  0  0  0  0  0  0999 V2000
    5.2292   -0.7917    0.0000 C   0  0  0  0  0  0  0  0  0  0  0  0
    6.0292   -0.4292    0.0000 C   0  0  0  0  0  0  0  0  0  0  0  0
    5.1875   -1.5917    0.0000 C   0  0  0  0  0  0  0  0  0  0  0  0
    4.1792   -0.1667    0.0000 C   0  0  0  0  0  0  0  0  0  0  0  0
    6.6125   -1.7292    0.0000 C   0  0  3  0  0  0  0  0  0  0  0  0
    5.8542   -2.0667    0.0000 C   0  0  0  0  0  0  0  0  0  0  0  0
    6.6917   -0.9167    0.0000 C   0  0  0  0  0  0  0  0  0  0  0  0
    3.1917   -1.8292    0.0000 C   0  0  0  0  0  0  0  0  0  0  0  0
    3.5167   -0.1667    0.0000 N   0  0  0  0  0  0  0  0  0  0  0  0
    4.4292   -1.9292    0.0000 O   0  0  0  0  0  0  0  0  0  0  0  0
    6.1167    0.3833    0.0000 O   0  0  0  0  0  0  0  0  0  0  0  0
    2.5292   -1.8250    0.0000 C   0  0  0  0  0  0  0  0  0  0  0  0
    3.5125   -1.2625    0.0000 C   0  0  0  0  0  0  0  0  0  0  0  0
    3.2000   -0.7042    0.0000 C   0  0  0  0  0  0  0  0  0  0  0  0
    2.2250   -1.2500    0.0000 C   0  0  0  0  0  0  0  0  0  0  0  0
    2.5375   -0.7042    0.0000 C   0  0  0  0  0  0  0  0  0  0  0  0
    3.5042   -2.3667    0.0000 C   0  0  0  0  0  0  0  0  0  0  0  0
    6.9125   -2.2792    0.0000 C   0  0  0  0  0  0  0  0  0  0  0  0
    7.2167   -1.4875    0.0000 C   0  0  0  0  0  0  0  0  0  0  0  0
    3.1792   -2.9042    0.0000 C   0  0  0  0  0  0  0  0  0  0  0  0
    2.5167   -2.9042    0.0000 C   0  0  0  0  0  0  0  0  0  0  0  0
  2  1  1  0  0  0  0
  3  1  1  0  0  0  0
  4  1  2  0  0  0  0
  5  6  1  0  0  0  0
  6  3  1  0  0  0  0
  7  2  1  0  0  0  0
  8 13  1  0  0  0  0
  9  4  1  0  0  0  0
 10  3  2  0  0  0  0
 11  2  2  0  0  0  0
 12 15  1  0  0  0  0
 13 14  2  0  0  0  0
 14  9  1  0  0  0  0
 15 16  2  0  0  0  0
 16 14  1  0  0  0  0
 17  8  1  0  0  0  0
 18  5  1  0  0  0  0
 19  5  1  0  0  0  0
 20 17  1  0  0  0  0
 21 12  1  0  0  0  0
  7  5  1  0  0  0  0
  8 12  2  0  0  0  0
 21 20  1  0  0  0  0
M  END
> <#>
600

> <PLATE>
LAT008

> <ROW>
H

> <COL>
6

> <COORD>
H06

> <LATID>
LAT008H06

> <Supplier>
Chembridge

> <Suplier_CAT#>
5491167

> <Name>
Novel

> <Sec_Name>
144_A02

> <Concentration_(mM)>
2.5

> <IC50_(µM)>
24

> <Yeast_Active?>
-

> <Pubchem_CID>
840518

$$$$
