
  -ISIS-  08130814242D

 21 23  0  0  0  0  0  0  0  0999 V2000
    0.5167   -0.2500    0.0000 C   0  0  0  0  0  0  0  0  0  0  0  0
   -0.3000    0.2333    0.0000 C   0  0  0  0  0  0  0  0  0  0  0  0
   -1.1208   -0.2500    0.0000 C   0  0  0  0  0  0  0  0  0  0  0  0
    1.3542    0.2333    0.0000 C   0  0  0  0  0  0  0  0  0  0  0  0
    2.1542   -0.2500    0.0000 C   0  0  0  0  0  0  0  0  0  0  0  0
    0.5167   -1.1875    0.0000 C   0  0  0  0  0  0  0  0  0  0  0  0
    2.9792    0.2333    0.0000 C   0  0  0  0  0  0  0  0  0  0  0  0
   -1.1208   -1.1875    0.0000 C   0  0  0  0  0  0  0  0  0  0  0  0
   -0.3000   -1.6500    0.0000 C   0  0  0  0  0  0  0  0  0  0  0  0
    1.3542    1.1708    0.0000 O   0  0  0  0  0  0  0  0  0  0  0  0
   -0.3000    1.1708    0.0000 O   0  0  0  0  0  0  0  0  0  0  0  0
    3.8000   -0.2500    0.0000 C   0  0  0  0  0  0  0  0  0  0  0  0
   -1.9208    0.2333    0.0000 C   0  0  0  0  0  0  0  0  0  0  0  0
   -1.9208   -1.6500    0.0000 C   0  0  0  0  0  0  0  0  0  0  0  0
    4.6000    0.2333    0.0000 C   0  0  0  0  0  0  0  0  0  0  0  0
    3.7792   -1.1875    0.0000 C   0  0  0  0  0  0  0  0  0  0  0  0
   -2.7458   -0.2500    0.0000 C   0  0  0  0  0  0  0  0  0  0  0  0
   -2.7458   -1.1875    0.0000 C   0  0  0  0  0  0  0  0  0  0  0  0
    5.4167   -0.2500    0.0000 C   0  0  0  0  0  0  0  0  0  0  0  0
    4.6000   -1.6667    0.0000 C   0  0  0  0  0  0  0  0  0  0  0  0
    5.4167   -1.1875    0.0000 C   0  0  0  0  0  0  0  0  0  0  0  0
  2  1  1  0  0  0  0
  3  2  2  0  0  0  0
  4  1  1  0  0  0  0
  5  4  1  0  0  0  0
  6  1  2  0  0  0  0
  7  5  2  0  0  0  0
  8  9  2  0  0  0  0
  9  6  1  0  0  0  0
 10  4  2  0  0  0  0
 11  2  1  0  0  0  0
 12  7  1  0  0  0  0
 13  3  1  0  0  0  0
 14  8  1  0  0  0  0
 15 12  1  0  0  0  0
 16 12  2  0  0  0  0
 17 13  2  0  0  0  0
 18 14  2  0  0  0  0
 19 15  2  0  0  0  0
 20 16  1  0  0  0  0
 21 20  2  0  0  0  0
  8  3  1  0  0  0  0
 18 17  1  0  0  0  0
 19 21  1  0  0  0  0
M  END
> <#>
1251

> <PLATE>
LAT016

> <ROW>
C

> <COL>
8

> <COORD>
C08

> <LATID>
LAT016C08

> <Supplier>
Chembridge

> <Suplier_CAT#>
6163745

> <Name>
Novel

> <Concentration_(mM)>
2.5

> <IC50_(µM)>
inactive

> <Yeast_Active?>
-

> <Pubchem_CID>
2888759

$$$$
