
  -ISIS-  08130814242D

 23 25  0  0  0  0  0  0  0  0999 V2000
    5.8667   -2.2375    0.0000 N   0  0  0  0  0  0  0  0  0  0  0  0
    4.5667   -2.2375    0.0000 C   0  0  0  0  0  0  0  0  0  0  0  0
    5.2167   -2.6042    0.0000 C   0  0  0  0  0  0  0  0  0  0  0  0
    2.6167   -1.1042    0.0000 C   0  0  0  0  0  0  0  0  0  0  0  0
    4.5667   -1.4875    0.0000 C   0  0  0  0  0  0  0  0  0  0  0  0
    5.8667   -1.4875    0.0000 C   0  0  0  0  0  0  0  0  0  0  0  0
    3.2667   -2.2292    0.0000 N   0  0  0  0  0  0  0  0  0  0  0  0
    5.2167   -1.1042    0.0000 C   0  0  0  0  0  0  0  0  0  0  0  0
    1.9667   -1.4792    0.0000 C   0  0  0  0  0  0  0  0  0  0  0  0
    3.9167   -2.6042    0.0000 C   0  0  0  0  0  0  0  0  0  0  0  0
    3.2667   -1.4792    0.0000 N   0  0  0  0  0  0  0  0  0  0  0  0
    2.6167   -0.3542    0.0000 O   0  0  0  0  0  0  0  0  0  0  0  0
    1.3167   -1.1000    0.0000 C   0  0  0  0  0  0  0  0  0  0  0  0
    1.9667   -2.2375    0.0000 C   0  0  0  0  0  0  0  0  0  0  0  0
    5.2167   -3.3542    0.0000 Cl  0  0  0  0  0  0  0  0  0  0  0  0
    0.6667   -2.2375    0.0000 C   0  0  0  0  0  0  0  0  0  0  0  0
    1.3167   -2.6042    0.0000 C   0  0  0  0  0  0  0  0  0  0  0  0
    0.6667   -1.4792    0.0000 C   0  0  0  0  0  0  0  0  0  0  0  0
    0.0167   -2.6042    0.0000 Br  0  0  0  0  0  0  0  0  0  0  0  0
    6.5167   -1.1042    0.0000 C   0  0  0  0  0  0  0  0  0  0  0  0
    5.2167   -0.3542    0.0000 C   0  0  0  0  0  0  0  0  0  0  0  0
    5.8667    0.0000    0.0000 C   0  0  0  0  0  0  0  0  0  0  0  0
    6.5167   -0.3542    0.0000 C   0  0  0  0  0  0  0  0  0  0  0  0
  2  3  1  0  0  0  0
  3  1  2  0  0  0  0
  4 11  1  0  0  0  0
  5  8  1  0  0  0  0
  6  1  1  0  0  0  0
  7 10  2  0  0  0  0
  8  6  1  0  0  0  0
  9  4  1  0  0  0  0
 10  2  1  0  0  0  0
 11  7  1  0  0  0  0
 12  4  2  0  0  0  0
 13  9  1  0  0  0  0
 14  9  2  0  0  0  0
 15  3  1  0  0  0  0
 16 17  2  0  0  0  0
 17 14  1  0  0  0  0
 18 13  2  0  0  0  0
 19 16  1  0  0  0  0
 20  6  2  0  0  0  0
 21  8  2  0  0  0  0
 22 23  2  0  0  0  0
 23 20  1  0  0  0  0
  5  2  2  0  0  0  0
 21 22  1  0  0  0  0
 16 18  1  0  0  0  0
M  END
> <#>
1660

> <PLATE>
LAT021

> <ROW>
D

> <COL>
9

> <COORD>
D09

> <LATID>
LAT021D09

> <Supplier>
Chembridge

> <Suplier_CAT#>
5474313

> <Name>
Novel

> <Concentration_(mM)>
2.5

> <IC50_(µM)>
inactive

> <Yeast_Active?>
-

> <Pubchem_CID>
1102482

$$$$
