
  -ISIS-  08130814242D

 27 30  0  0  0  0  0  0  0  0999 V2000
   -0.3208    0.7625    0.0000 C   0  0  0  0  0  0  0  0  0  0  0  0
   -0.9500    0.4333    0.0000 N   0  0  0  0  0  0  0  0  0  0  0  0
   -1.5333    0.7833    0.0000 N   0  0  3  0  0  0  0  0  0  0  0  0
    0.2667    0.4000    0.0000 C   0  0  0  0  0  0  0  0  0  0  0  0
   -0.3208    1.4458    0.0000 C   0  0  0  0  0  0  0  0  0  0  0  0
    2.7375    0.4208    0.0000 C   0  0  0  0  0  0  0  0  0  0  0  0
    3.4167   -0.6292    0.0000 N   0  0  0  0  0  0  0  0  0  0  0  0
    2.7375   -0.3000    0.0000 C   0  0  0  0  0  0  0  0  0  0  0  0
   -1.5333    1.4458    0.0000 C   0  0  0  0  0  0  0  0  0  0  0  0
    3.9875    0.4208    0.0000 C   0  0  0  0  0  0  0  0  0  0  0  0
    1.4875    0.4000    0.0000 N   0  0  0  0  0  0  0  0  0  0  0  0
    3.9875   -0.3000    0.0000 C   0  0  0  0  0  0  0  0  0  0  0  0
    0.8792    0.7708    0.0000 N   0  0  0  0  0  0  0  0  0  0  0  0
    0.2667   -0.3042    0.0000 O   0  0  0  0  0  0  0  0  0  0  0  0
    2.1042    0.7708    0.0000 C   0  0  0  0  0  0  0  0  0  0  0  0
   -2.1958    0.4333    0.0000 C   0  0  0  0  0  0  0  0  0  0  0  0
   -2.8333    0.7833    0.0000 C   0  0  0  0  0  0  0  0  0  0  0  0
   -4.1458    1.5458    0.0000 C   0  0  0  0  0  0  0  0  0  0  0  0
   -4.7833    1.9333    0.0000 Cl  0  0  0  0  0  0  0  0  0  0  0  0
   -4.1458    0.7833    0.0000 C   0  0  0  0  0  0  0  0  0  0  0  0
   -3.5000    1.9125    0.0000 C   0  0  0  0  0  0  0  0  0  0  0  0
   -3.5000    0.4125    0.0000 C   0  0  0  0  0  0  0  0  0  0  0  0
   -2.8333    1.5458    0.0000 C   0  0  0  0  0  0  0  0  0  0  0  0
    4.6042    0.7958    0.0000 C   0  0  0  0  0  0  0  0  0  0  0  0
    4.6042   -0.6542    0.0000 C   0  0  0  0  0  0  0  0  0  0  0  0
    5.2375    0.4333    0.0000 C   0  0  0  0  0  0  0  0  0  0  0  0
    5.2375   -0.3000    0.0000 C   0  0  0  0  0  0  0  0  0  0  0  0
  2  1  2  0  0  0  0
  3  2  1  0  0  0  0
  4  1  1  0  0  0  0
  5  1  1  0  0  0  0
  6 15  1  0  0  0  0
  7  8  1  0  0  0  0
  8  6  2  0  0  0  0
  9  5  2  0  0  0  0
 10  6  1  0  0  0  0
 11 13  1  0  0  0  0
 12 10  2  0  0  0  0
 13  4  1  0  0  0  0
 14  4  2  0  0  0  0
 15 11  2  0  0  0  0
 16  3  1  0  0  0  0
 17 16  1  0  0  0  0
 18 21  2  0  0  0  0
 19 18  1  0  0  0  0
 20 22  2  0  0  0  0
 21 23  1  0  0  0  0
 22 17  1  0  0  0  0
 23 17  2  0  0  0  0
 24 10  1  0  0  0  0
 25 12  1  0  0  0  0
 26 24  2  0  0  0  0
 27 26  1  0  0  0  0
  9  3  1  0  0  0  0
 18 20  1  0  0  0  0
 12  7  1  0  0  0  0
 27 25  2  0  0  0  0
M  END
> <#>
1015

> <PLATE>
LAT013

> <ROW>
G

> <COL>
8

> <COORD>
G08

> <LATID>
LAT013G08

> <Supplier>
Chembridge

> <Suplier_CAT#>
5770155

> <Name>
Novel

> <Sec_Name>
243_D06

> <Concentration_(mM)>
2.5

> <IC50_(µM)>
>100

> <Yeast_Active?>
-

> <Pubchem_CID>
NULL

$$$$
