
  -ISIS-  08130814242D

 20 22  0  0  0  0  0  0  0  0999 V2000
    2.3292    2.6333    0.0000 N   0  0  0  0  0  0  0  0  0  0  0  0
    2.8292    2.0708    0.0000 C   0  0  0  0  0  0  0  0  0  0  0  0
    1.7250    1.5833    0.0000 N   0  0  3  0  0  0  0  0  0  0  0  0
    1.6417    2.3333    0.0000 C   0  0  0  0  0  0  0  0  0  0  0  0
    2.4542    1.4208    0.0000 C   0  0  0  0  0  0  0  0  0  0  0  0
    3.5792    2.0708    0.0000 C   0  0  0  0  0  0  0  0  0  0  0  0
    2.8292    0.7708    0.0000 C   0  0  0  0  0  0  0  0  0  0  0  0
    6.2042    0.1208    0.0000 N   0  0  0  0  0  0  0  0  0  0  0  0
    4.7042    1.4208    0.0000 N   0  0  0  0  0  0  0  0  0  0  0  0
    3.9542    1.4208    0.0000 C   0  0  0  0  0  0  0  0  0  0  0  0
    5.8292    0.7708    0.0000 C   0  0  0  0  0  0  0  0  0  0  0  0
    3.5792    0.7708    0.0000 C   0  0  0  0  0  0  0  0  0  0  0  0
    5.0792    0.7708    0.0000 C   0  0  0  0  0  0  0  0  0  0  0  0
    1.1667    1.0750    0.0000 C   0  0  0  0  0  0  0  0  0  0  0  0
    6.9542    0.1208    0.0000 C   0  0  0  0  0  0  0  0  0  0  0  0
    6.2042    1.4208    0.0000 C   0  0  0  0  0  0  0  0  0  0  0  0
    0.4542    1.3083    0.0000 C   0  0  0  0  0  0  0  0  0  0  0  0
    7.3292    0.7708    0.0000 C   0  0  0  0  0  0  0  0  0  0  0  0
   -0.1083    0.8083    0.0000 C   0  0  0  0  0  0  0  0  0  0  0  0
    6.9542    1.4208    0.0000 C   0  0  0  0  0  0  0  0  0  0  0  0
  2  1  1  0  0  0  0
  3  4  1  0  0  0  0
  4  1  2  0  0  0  0
  5  2  2  0  0  0  0
  6  2  1  0  0  0  0
  7  5  1  0  0  0  0
  8 11  1  0  0  0  0
  9 10  1  0  0  0  0
 10  6  2  0  0  0  0
 11 13  1  0  0  0  0
 12 10  1  0  0  0  0
 13  9  1  0  0  0  0
 14  3  1  0  0  0  0
 15  8  2  0  0  0  0
 16 11  2  0  0  0  0
 17 14  1  0  0  0  0
 18 20  2  0  0  0  0
 19 17  1  0  0  0  0
 20 16  1  0  0  0  0
  3  5  1  0  0  0  0
 12  7  2  0  0  0  0
 18 15  1  0  0  0  0
M  END
> <#>
1573

> <PLATE>
LAT020

> <ROW>
E

> <COL>
8

> <COORD>
E08

> <LATID>
LAT020E08

> <Supplier>
Chembridge

> <Suplier_CAT#>
7950773

> <Name>
Novel

> <Concentration_(mM)>
2.5

> <IC50_(µM)>
>100

> <Yeast_Active?>
-

> <Pubchem_CID>
NULL

$$$$
