
  -ISIS-  08130814242D

 28 32  0  0  0  0  0  0  0  0999 V2000
   -1.4208   -0.5792    0.0000 C   0  0  0  0  0  0  0  0  0  0  0  0
   -2.1625   -1.0000    0.0000 C   0  0  0  0  0  0  0  0  0  0  0  0
   -0.6833   -1.8542    0.0000 N   0  0  0  0  0  0  0  0  0  0  0  0
   -0.6833   -1.0167    0.0000 C   0  0  3  0  0  0  0  0  0  0  0  0
   -2.1625   -1.8542    0.0000 C   0  0  0  0  0  0  0  0  0  0  0  0
   -1.4208   -2.2792    0.0000 C   0  0  0  0  0  0  0  0  0  0  0  0
   -1.4208    0.2833    0.0000 C   0  0  0  0  0  0  0  0  0  0  0  0
   -2.9000   -2.2792    0.0000 C   0  0  0  0  0  0  0  0  0  0  0  0
    0.0542   -0.6000    0.0000 C   0  0  0  0  0  0  0  0  0  0  0  0
   -1.4208   -3.1167    0.0000 C   0  0  0  0  0  0  0  0  0  0  0  0
    1.5375    0.2625    0.0000 C   0  0  0  0  0  0  0  0  0  0  0  0
   -0.6833    0.7208    0.0000 O   0  0  0  0  0  0  0  0  0  0  0  0
   -2.9000   -3.1375    0.0000 C   0  0  0  0  0  0  0  0  0  0  0  0
    0.0542    0.2625    0.0000 C   0  0  0  0  0  0  0  0  0  0  0  0
    0.8000   -1.0167    0.0000 C   0  0  0  0  0  0  0  0  0  0  0  0
    1.5375   -0.6000    0.0000 C   0  0  0  0  0  0  0  0  0  0  0  0
    0.7792    0.6833    0.0000 C   0  0  0  0  0  0  0  0  0  0  0  0
   -2.1625   -3.5375    0.0000 C   0  0  0  0  0  0  0  0  0  0  0  0
   -2.9000   -0.5792    0.0000 C   0  0  0  0  0  0  0  0  0  0  0  0
    2.2792    0.7000    0.0000 C   0  0  3  0  0  0  0  0  0  0  0  0
   -2.1625    0.7000    0.0000 C   0  0  0  0  0  0  0  0  0  0  0  0
   -2.9000    0.2833    0.0000 C   0  0  0  0  0  0  0  0  0  0  0  0
   -3.6208   -1.8542    0.0000 C   0  0  0  0  0  0  0  0  0  0  0  0
   -3.6208   -3.5542    0.0000 C   0  0  0  0  0  0  0  0  0  0  0  0
    2.2792    1.5458    0.0000 C   0  0  0  0  0  0  0  0  0  0  0  0
    3.0167    0.2833    0.0000 C   0  0  0  0  0  0  0  0  0  0  0  0
   -4.3625   -2.3000    0.0000 C   0  0  0  0  0  0  0  0  0  0  0  0
   -4.3625   -3.1167    0.0000 C   0  0  0  0  0  0  0  0  0  0  0  0
  2  1  2  0  0  0  0
  3  4  1  0  0  0  0
  4  1  1  0  0  0  0
  5  2  1  0  0  0  0
  6  3  1  0  0  0  0
  7  1  1  0  0  0  0
  8  5  1  0  0  0  0
  9  4  1  0  0  0  0
 10  6  1  0  0  0  0
 11 16  1  0  0  0  0
 12  7  2  0  0  0  0
 13  8  2  0  0  0  0
 14  9  2  0  0  0  0
 15  9  1  0  0  0  0
 16 15  2  0  0  0  0
 17 14  1  0  0  0  0
 18 10  2  0  0  0  0
 19  2  1  0  0  0  0
 20 11  1  0  0  0  0
 21  7  1  0  0  0  0
 22 21  1  0  0  0  0
 23  8  1  0  0  0  0
 24 13  1  0  0  0  0
 25 20  1  0  0  0  0
 26 20  1  0  0  0  0
 27 23  2  0  0  0  0
 28 27  1  0  0  0  0
 19 22  1  0  0  0  0
  5  6  2  0  0  0  0
 17 11  2  0  0  0  0
 13 18  1  0  0  0  0
 28 24  2  0  0  0  0
M  END
> <#>
1965

> <PLATE>
LAT025

> <ROW>
E

> <COL>
7

> <COORD>
E07

> <LATID>
LAT025E07

> <Supplier>
Chembridge

> <Suplier_CAT#>
5483613

> <Concentration_(mM)>
2.5

> <IC50_(µM)>
inactive

> <Yeast_Active?>
-

> <Pubchem_CID>
1358144

$$$$
