
  -ISIS-  08130814242D

 26 27  0  0  0  0  0  0  0  0999 V2000
    1.7667    2.0708    0.0000 S   0  0  3  0  0  0  0  0  0  0  0  0
    2.5167    2.0708    0.0000 C   0  0  0  0  0  0  0  0  0  0  0  0
    2.8917    1.4208    0.0000 C   0  0  0  0  0  0  0  0  0  0  0  0
    1.0250    1.9375    0.0000 O   0  0  0  0  0  0  0  0  0  0  0  0
    1.8292    1.3208    0.0000 O   0  0  0  0  0  0  0  0  0  0  0  0
    3.6417    1.4208    0.0000 C   0  0  0  0  0  0  0  0  0  0  0  0
    5.8917    2.7208    0.0000 C   0  0  0  0  0  0  0  0  0  0  0  0
    4.0167    2.0708    0.0000 C   0  0  0  0  0  0  0  0  0  0  0  0
    1.5667    2.7958    0.0000 N   0  0  0  0  0  0  0  0  0  0  0  0
    6.2667    3.3708    0.0000 N   0  0  0  0  0  0  0  0  0  0  0  0
    4.7667    2.0708    0.0000 O   0  0  0  0  0  0  0  0  0  0  0  0
    8.1417    4.0125    0.0000 N   0  0  0  0  0  0  0  0  0  0  0  0
    2.8917    2.7208    0.0000 C   0  0  0  0  0  0  0  0  0  0  0  0
    6.2667    2.0708    0.0000 O   0  0  0  0  0  0  0  0  0  0  0  0
    3.6417    2.7208    0.0000 C   0  0  0  0  0  0  0  0  0  0  0  0
    5.1417    2.7208    0.0000 C   0  0  0  0  0  0  0  0  0  0  0  0
    7.3917    4.0125    0.0000 C   0  0  0  0  0  0  0  0  0  0  0  0
    7.0167    3.3708    0.0000 C   0  0  0  0  0  0  0  0  0  0  0  0
    4.0167    0.7708    0.0000 C   0  0  0  0  0  0  0  0  0  0  0  0
    8.5167    4.6542    0.0000 C   0  0  0  0  0  0  0  0  0  0  0  0
    0.8417    2.9875    0.0000 C   0  0  0  0  0  0  0  0  0  0  0  0
    7.0167    4.6542    0.0000 C   0  0  0  0  0  0  0  0  0  0  0  0
    0.6542    3.7083    0.0000 C   0  0  0  0  0  0  0  0  0  0  0  0
    8.1417    5.3125    0.0000 C   0  0  0  0  0  0  0  0  0  0  0  0
   -0.0708    3.9083    0.0000 C   0  0  0  0  0  0  0  0  0  0  0  0
    7.3917    5.3125    0.0000 C   0  0  0  0  0  0  0  0  0  0  0  0
  2  1  1  0  0  0  0
  3  2  2  0  0  0  0
  4  1  2  0  0  0  0
  5  1  2  0  0  0  0
  6  3  1  0  0  0  0
  7 16  1  0  0  0  0
  8 15  1  0  0  0  0
  9  1  1  0  0  0  0
 10  7  1  0  0  0  0
 11  8  1  0  0  0  0
 12 17  2  0  0  0  0
 13  2  1  0  0  0  0
 14  7  2  0  0  0  0
 15 13  2  0  0  0  0
 16 11  1  0  0  0  0
 17 18  1  0  0  0  0
 18 10  1  0  0  0  0
 19  6  1  0  0  0  0
 20 12  1  0  0  0  0
 21  9  1  0  0  0  0
 22 17  1  0  0  0  0
 23 21  1  0  0  0  0
 24 26  1  0  0  0  0
 25 23  1  0  0  0  0
 26 22  2  0  0  0  0
  6  8  2  0  0  0  0
 24 20  2  0  0  0  0
M  END
> <#>
1473

> <PLATE>
LAT019

> <ROW>
A

> <COL>
6

> <COORD>
A06

> <LATID>
LAT019A06

> <Supplier>
Chembridge

> <Suplier_CAT#>
9034021

> <Name>
Novel

> <Concentration_(mM)>
2.5

> <IC50_(µM)>
inactive

> <Yeast_Active?>
-

> <Pubchem_CID>
6462211

$$$$
