
  -ISIS-  08130814242D

 35 39  0  0  0  0  0  0  0  0999 V2000
    1.8292   -2.3667    0.0000 C   0  0  0  0  0  0  0  0  0  0  0  0
    0.4542   -2.3667    0.0000 C   0  0  0  0  0  0  0  0  0  0  0  0
    0.4542   -3.1667    0.0000 C   0  0  0  0  0  0  0  0  0  0  0  0
    1.1417   -1.9667    0.0000 C   0  0  3  0  0  0  0  0  0  0  0  0
    1.8292   -3.1667    0.0000 C   0  0  0  0  0  0  0  0  0  0  0  0
    1.1417   -3.5667    0.0000 N   0  0  0  0  0  0  0  0  0  0  0  0
   -0.2333   -1.9667    0.0000 C   0  0  0  0  0  0  0  0  0  0  0  0
    2.5292   -1.9625    0.0000 C   0  0  0  0  0  0  0  0  0  0  0  0
    1.1292   -0.3917    0.0000 C   0  0  0  0  0  0  0  0  0  0  0  0
   -0.9250   -3.1667    0.0000 C   0  0  3  0  0  0  0  0  0  0  0  0
   -0.2333   -3.5667    0.0000 C   0  0  0  0  0  0  0  0  0  0  0  0
   -0.9250   -2.3667    0.0000 C   0  0  0  0  0  0  0  0  0  0  0  0
   -3.0708   -3.5667    0.0000 C   0  0  0  0  0  0  0  0  0  0  0  0
   -1.6458   -3.5750    0.0000 C   0  0  0  0  0  0  0  0  0  0  0  0
   -2.3500   -3.1625    0.0000 C   0  0  0  0  0  0  0  0  0  0  0  0
   -3.0708   -4.4000    0.0000 C   0  0  0  0  0  0  0  0  0  0  0  0
   -3.8583   -3.3167    0.0000 O   0  0  0  0  0  0  0  0  0  0  0  0
   -3.8500   -4.6542    0.0000 O   0  0  0  0  0  0  0  0  0  0  0  0
   -0.2333   -1.1667    0.0000 O   0  0  0  0  0  0  0  0  0  0  0  0
   -4.3458   -3.9917    0.0000 C   0  0  0  0  0  0  0  0  0  0  0  0
    1.8250    0.0083    0.0000 C   0  0  0  0  0  0  0  0  0  0  0  0
    2.5292   -1.1667    0.0000 O   0  0  0  0  0  0  0  0  0  0  0  0
   -1.6375   -4.3917    0.0000 C   0  0  0  0  0  0  0  0  0  0  0  0
   -2.3458   -4.8125    0.0000 C   0  0  0  0  0  0  0  0  0  0  0  0
    3.2167   -2.3625    0.0000 O   0  0  0  0  0  0  0  0  0  0  0  0
    2.5292   -3.5667    0.0000 C   0  0  0  0  0  0  0  0  0  0  0  0
    2.5167   -0.3875    0.0000 O   0  0  0  0  0  0  0  0  0  0  0  0
    0.4417    0.0083    0.0000 C   0  0  0  0  0  0  0  0  0  0  0  0
    1.8250    0.8083    0.0000 C   0  0  0  0  0  0  0  0  0  0  0  0
    3.2292    0.0333    0.0000 C   0  0  0  0  0  0  0  0  0  0  0  0
    3.9042   -1.9625    0.0000 C   0  0  0  0  0  0  0  0  0  0  0  0
    3.9500   -0.3792    0.0000 C   0  0  0  0  0  0  0  0  0  0  0  0
    0.4417    0.8083    0.0000 C   0  0  0  0  0  0  0  0  0  0  0  0
    4.6542    0.0375    0.0000 C   0  0  0  0  0  0  0  0  0  0  0  0
    1.1292    1.2083    0.0000 C   0  0  0  0  0  0  0  0  0  0  0  0
  2  4  1  0  0  0  0
  3  6  1  0  0  0  0
  4  1  1  0  0  0  0
  5  1  2  0  0  0  0
  6  5  1  0  0  0  0
  7  2  1  0  0  0  0
  8  1  1  0  0  0  0
  9  4  1  0  0  0  0
 10 11  1  0  0  0  0
 11  3  1  0  0  0  0
 12  7  1  0  0  0  0
 13 15  1  0  0  0  0
 14 10  1  0  0  0  0
 15 14  2  0  0  0  0
 16 24  1  0  0  0  0
 17 13  1  0  0  0  0
 18 16  1  0  0  0  0
 19  7  2  0  0  0  0
 20 17  1  0  0  0  0
 21  9  2  0  0  0  0
 22  8  2  0  0  0  0
 23 14  1  0  0  0  0
 24 23  2  0  0  0  0
 25  8  1  0  0  0  0
 26  5  1  0  0  0  0
 27 21  1  0  0  0  0
 28  9  1  0  0  0  0
 29 21  1  0  0  0  0
 30 27  1  0  0  0  0
 31 25  1  0  0  0  0
 32 30  1  0  0  0  0
 33 28  2  0  0  0  0
 34 32  1  0  0  0  0
 35 33  1  0  0  0  0
  3  2  2  0  0  0  0
 10 12  1  0  0  0  0
 35 29  2  0  0  0  0
 16 13  2  0  0  0  0
 20 18  1  0  0  0  0
M  END
> <#>
964

> <PLATE>
LAT013

> <ROW>
D

> <COL>
2

> <COORD>
D02

> <LATID>
LAT013D02

> <Supplier>
Chembridge

> <Suplier_CAT#>
5743949

> <Name>
Novel

> <Sec_Name>
236_C06

> <Concentration_(mM)>
2.5

> <IC50_(µM)>
>100

> <Yeast_Active?>
-

> <Pubchem_CID>
NULL

$$$$
