
  -ISIS-  08130814242D

 22 24  0  0  0  0  0  0  0  0999 V2000
   -2.0458   -0.2167    0.0000 N   0  0  3  0  0  0  0  0  0  0  0  0
   -2.6208    0.0458    0.0000 C   0  0  0  0  0  0  0  0  0  0  0  0
   -2.1000   -0.8542    0.0000 C   0  0  0  0  0  0  0  0  0  0  0  0
   -3.0625   -0.4375    0.0000 C   0  0  0  0  0  0  0  0  0  0  0  0
   -2.7458   -1.0000    0.0000 C   0  0  0  0  0  0  0  0  0  0  0  0
   -1.4833    0.1208    0.0000 C   0  0  0  0  0  0  0  0  0  0  0  0
   -0.9000   -0.2000    0.0000 N   0  0  0  0  0  0  0  0  0  0  0  0
   -2.7458    0.7000    0.0000 O   0  0  0  0  0  0  0  0  0  0  0  0
   -1.6208   -1.2792    0.0000 O   0  0  0  0  0  0  0  0  0  0  0  0
   -0.3625    0.1458    0.0000 C   0  0  0  0  0  0  0  0  0  0  0  0
    0.2167   -0.1792    0.0000 C   0  0  0  0  0  0  0  0  0  0  0  0
   -3.7208   -0.4375    0.0000 C   0  0  0  0  0  0  0  0  0  0  0  0
   -3.0833   -1.5542    0.0000 C   0  0  0  0  0  0  0  0  0  0  0  0
    0.2375   -0.8167    0.0000 O   0  0  0  0  0  0  0  0  0  0  0  0
   -0.3625    0.7833    0.0000 C   0  0  0  0  0  0  0  0  0  0  0  0
    0.7792    0.1458    0.0000 C   0  0  0  0  0  0  0  0  0  0  0  0
    0.8000   -1.1167    0.0000 C   0  0  0  0  0  0  0  0  0  0  0  0
   -4.0458   -1.0000    0.0000 C   0  0  0  0  0  0  0  0  0  0  0  0
   -3.7208   -1.5542    0.0000 C   0  0  0  0  0  0  0  0  0  0  0  0
    1.3375   -0.7792    0.0000 C   0  0  0  0  0  0  0  0  0  0  0  0
    0.7542    0.7833    0.0000 C   0  0  0  0  0  0  0  0  0  0  0  0
    0.2000    1.1000    0.0000 C   0  0  0  0  0  0  0  0  0  0  0  0
  2  1  1  0  0  0  0
  3  1  1  0  0  0  0
  4  2  1  0  0  0  0
  5  3  1  0  0  0  0
  6  1  1  0  0  0  0
  7  6  1  0  0  0  0
  8  2  2  0  0  0  0
  9  3  2  0  0  0  0
 10  7  1  0  0  0  0
 11 10  1  0  0  0  0
 12  4  1  0  0  0  0
 13  5  1  0  0  0  0
 14 11  1  0  0  0  0
 15 10  2  0  0  0  0
 16 11  2  0  0  0  0
 17 14  1  0  0  0  0
 18 12  2  0  0  0  0
 19 13  2  0  0  0  0
 20 17  1  0  0  0  0
 21 22  2  0  0  0  0
 22 15  1  0  0  0  0
  5  4  2  0  0  0  0
 19 18  1  0  0  0  0
 21 16  1  0  0  0  0
M  END
> <#>
2048

> <PLATE>
LAT026

> <ROW>
H

> <COL>
7

> <COORD>
H07

> <LATID>
LAT026H07

> <Supplier>
Chembridge

> <Suplier_CAT#>
5552068

> <Sec_Name>
167_E07

> <Concentration_(mM)>
2.5

> <IC50_(µM)>
inactive

> <Yeast_Active?>
-

> <Pubchem_CID>
NULL

$$$$
