
  -ISIS-  08130814242D

 21 23  0  0  0  0  0  0  0  0999 V2000
    3.6167   -2.7000    0.0000 C   0  0  0  0  0  0  0  0  0  0  0  0
    3.6167   -1.9500    0.0000 C   0  0  0  0  0  0  0  0  0  0  0  0
    2.9667   -1.5750    0.0000 O   0  0  0  0  0  0  0  0  0  0  0  0
    2.9667   -3.0750    0.0000 C   0  0  0  0  0  0  0  0  0  0  0  0
    2.3167   -1.9500    0.0000 C   0  0  0  0  0  0  0  0  0  0  0  0
    2.3167   -2.7000    0.0000 C   0  0  0  0  0  0  0  0  0  0  0  0
    1.6750   -1.5750    0.0000 C   0  0  0  0  0  0  0  0  0  0  0  0
    1.6750   -3.0750    0.0000 C   0  0  0  0  0  0  0  0  0  0  0  0
    4.2667   -1.5750    0.0000 C   0  0  0  0  0  0  0  0  0  0  0  0
    2.9667   -3.8250    0.0000 O   0  0  0  0  0  0  0  0  0  0  0  0
    4.2667   -3.0792    0.0000 O   0  0  0  0  0  0  0  0  0  0  0  0
    1.0250   -1.9500    0.0000 C   0  0  0  0  0  0  0  0  0  0  0  0
    1.0250   -2.7000    0.0000 C   0  0  0  0  0  0  0  0  0  0  0  0
    0.3667   -1.5667    0.0000 O   0  0  0  0  0  0  0  0  0  0  0  0
    4.2667   -0.8250    0.0000 C   0  0  0  0  0  0  0  0  0  0  0  0
    4.9167   -1.9500    0.0000 C   0  0  0  0  0  0  0  0  0  0  0  0
    4.9167   -2.7042    0.0000 C   0  0  0  0  0  0  0  0  0  0  0  0
    0.3667   -0.8167    0.0000 C   0  0  0  0  0  0  0  0  0  0  0  0
    5.5667   -1.5750    0.0000 C   0  0  0  0  0  0  0  0  0  0  0  0
    4.9125   -0.4500    0.0000 C   0  0  0  0  0  0  0  0  0  0  0  0
    5.5667   -0.8250    0.0000 C   0  0  0  0  0  0  0  0  0  0  0  0
  2  1  2  0  0  0  0
  3  2  1  0  0  0  0
  4  1  1  0  0  0  0
  5  6  2  0  0  0  0
  6  4  1  0  0  0  0
  7  5  1  0  0  0  0
  8  6  1  0  0  0  0
  9  2  1  0  0  0  0
 10  4  2  0  0  0  0
 11  1  1  0  0  0  0
 12 13  1  0  0  0  0
 13  8  2  0  0  0  0
 14 12  1  0  0  0  0
 15  9  2  0  0  0  0
 16  9  1  0  0  0  0
 17 11  1  0  0  0  0
 18 14  1  0  0  0  0
 19 16  2  0  0  0  0
 20 15  1  0  0  0  0
 21 19  1  0  0  0  0
  5  3  1  0  0  0  0
  7 12  2  0  0  0  0
 20 21  2  0  0  0  0
M  END
> <#>
25

> <PLATE>
LAT001

> <ROW>
A

> <COL>
5

> <COORD>
A05

> <LATID>
LAT001A05

> <Supplier>
Microsource

> <Suplier_CAT#>
01500737

> <Name>
3,7-Dimethoxyflavone

> <Concentration_(mM)>
2.5

> <IC50_(µM)>
100

> <Yeast_Active?>
-

> <Pubchem_CID>
688664

> <Source>
Natural Product; ex Pongamia pinnata

$$$$
