
  -ISIS-  08130814242D

 18 19  0  0  0  0  0  0  0  0999 V2000
    0.1000   -1.5792    0.0000 S   0  0  3  0  0  0  0  0  0  0  0  0
    1.3792   -1.5792    0.0000 N   0  0  0  0  0  0  0  0  0  0  0  0
   -1.1625   -1.5792    0.0000 C   0  0  0  0  0  0  0  0  0  0  0  0
    0.1000   -2.8375    0.0000 O   0  0  0  0  0  0  0  0  0  0  0  0
    0.1000   -0.3000    0.0000 O   0  0  0  0  0  0  0  0  0  0  0  0
    2.0167   -0.4792    0.0000 C   0  0  0  0  0  0  0  0  0  0  0  0
    3.2792   -0.4792    0.0000 C   0  0  0  0  0  0  0  0  0  0  0  0
   -1.8000   -2.6792    0.0000 C   0  0  0  0  0  0  0  0  0  0  0  0
   -1.8000   -0.4792    0.0000 C   0  0  0  0  0  0  0  0  0  0  0  0
   -3.7000   -1.5792    0.0000 C   0  0  0  0  0  0  0  0  0  0  0  0
   -3.0833   -0.4792    0.0000 C   0  0  0  0  0  0  0  0  0  0  0  0
   -3.0833   -2.6792    0.0000 C   0  0  0  0  0  0  0  0  0  0  0  0
   -4.9833   -1.5792    0.0000 Cl  0  0  0  0  0  0  0  0  0  0  0  0
    1.3792    0.6208    0.0000 C   0  0  0  0  0  0  0  0  0  0  0  0
    3.9000   -1.5792    0.0000 C   0  0  0  0  0  0  0  0  0  0  0  0
    3.9167    0.6208    0.0000 C   0  0  0  0  0  0  0  0  0  0  0  0
    2.0000    1.7208    0.0000 C   0  0  0  0  0  0  0  0  0  0  0  0
    3.2792    1.7208    0.0000 C   0  0  0  0  0  0  0  0  0  0  0  0
  2  1  1  0  0  0  0
  3  1  1  0  0  0  0
  4  1  2  0  0  0  0
  5  1  2  0  0  0  0
  6  2  1  0  0  0  0
  7  6  1  0  0  0  0
  8  3  1  0  0  0  0
  9  3  2  0  0  0  0
 10 11  2  0  0  0  0
 11  9  1  0  0  0  0
 12  8  2  0  0  0  0
 13 10  1  0  0  0  0
 14  6  2  0  0  0  0
 15  7  1  0  0  0  0
 16  7  2  0  0  0  0
 17 14  1  0  0  0  0
 18 17  2  0  0  0  0
 12 10  1  0  0  0  0
 18 16  1  0  0  0  0
M  END
> <#>
1101

> <PLATE>
LAT014

> <ROW>
E

> <COL>
9

> <COORD>
E09

> <LATID>
LAT014E09

> <Supplier>
Chembridge

> <Suplier_CAT#>
5313093

> <Name>
Novel

> <Concentration_(mM)>
2.5

> <IC50_(µM)>
45

> <Yeast_Active?>
-

> <Pubchem_CID>
722856

$$$$
