
  -ISIS-  08130814242D

 26 27  0  0  0  0  0  0  0  0999 V2000
   -0.8500    1.7208    0.0000 C   0  0  0  0  0  0  0  0  0  0  0  0
   -1.4000    0.8000    0.0000 C   0  0  0  0  0  0  0  0  0  0  0  0
   -2.4708    0.8125    0.0000 C   0  0  3  0  0  0  0  0  0  0  0  0
    0.2292    1.7208    0.0000 C   0  0  0  0  0  0  0  0  0  0  0  0
   -2.9958    1.7458    0.0000 C   0  0  0  0  0  0  0  0  0  0  0  0
    3.4375   -2.0500    0.0000 C   0  0  0  0  0  0  0  0  0  0  0  0
   -1.3958    2.6500    0.0000 C   0  0  3  0  0  0  0  0  0  0  0  0
    4.0292    0.7333    0.0000 C   0  0  0  0  0  0  0  0  0  0  0  0
    2.3542   -2.0167    0.0000 N   0  0  0  0  0  0  0  0  0  0  0  0
   -0.8625   -0.1500    0.0000 O   0  0  0  0  0  0  0  0  0  0  0  0
   -2.4625    2.6625    0.0000 C   0  0  0  0  0  0  0  0  0  0  0  0
    3.9542   -2.9667    0.0000 O   0  0  0  0  0  0  0  0  0  0  0  0
    3.5042    1.6708    0.0000 O   0  0  0  0  0  0  0  0  0  0  0  0
    0.7792    0.7833    0.0000 C   0  0  0  0  0  0  0  0  0  0  0  0
   -3.0208   -0.1042    0.0000 C   0  0  3  0  0  0  0  0  0  0  0  0
    1.8375   -1.0667    0.0000 C   0  0  0  0  0  0  0  0  0  0  0  0
    3.9792   -1.1167    0.0000 C   0  0  0  0  0  0  0  0  0  0  0  0
    3.4542   -0.1875    0.0000 C   0  0  0  0  0  0  0  0  0  0  0  0
    5.1000    0.7000    0.0000 O   0  0  0  0  0  0  0  0  0  0  0  0
    0.2500   -0.1667    0.0000 C   0  0  0  0  0  0  0  0  0  0  0  0
    1.8375    0.7708    0.0000 C   0  0  0  0  0  0  0  0  0  0  0  0
    2.3792   -0.1375    0.0000 C   0  0  0  0  0  0  0  0  0  0  0  0
    0.7792   -1.0542    0.0000 C   0  0  0  0  0  0  0  0  0  0  0  0
   -0.8625    3.5958    0.0000 C   0  0  0  0  0  0  0  0  0  0  0  0
   -2.4958   -1.0500    0.0000 C   0  0  0  0  0  0  0  0  0  0  0  0
   -4.1125   -0.0917    0.0000 C   0  0  0  0  0  0  0  0  0  0  0  0
  2  1  1  0  0  0  0
  3  2  1  0  0  0  0
  4  1  2  0  0  0  0
  5 11  1  0  0  0  0
  6  9  1  0  0  0  0
  7  1  1  0  0  0  0
  8 18  1  0  0  0  0
  9 16  1  0  0  0  0
 10  2  2  0  0  0  0
 11  7  1  0  0  0  0
 12  6  2  0  0  0  0
 13  8  2  0  0  0  0
 14  4  1  0  0  0  0
 15  3  1  0  0  0  0
 16 22  1  0  0  0  0
 17  6  1  0  0  0  0
 18 17  1  0  0  0  0
 19  8  1  0  0  0  0
 20 14  2  0  0  0  0
 21 14  1  0  0  0  0
 22 21  2  0  0  0  0
 23 20  1  0  0  0  0
 24  7  1  0  0  0  0
 25 15  1  0  0  0  0
 26 15  1  0  0  0  0
  3  5  1  0  0  0  0
 16 23  2  0  0  0  0
M  END
> <#>
1919

> <PLATE>
LAT024

> <ROW>
G

> <COL>
11

> <COORD>
G11

> <LATID>
LAT024G11

> <Supplier>
Chembridge

> <Suplier_CAT#>
5549531

> <Name>
Novel

> <Sec_Name>
162_A05

> <Concentration_(mM)>
2.5

> <IC50_(µM)>
65

> <Yeast_Active?>
-

> <Pubchem_CID>
3945498

$$$$
