
  -ISIS-  08130814242D

 18 19  0  0  0  0  0  0  0  0999 V2000
    9.5667    1.4000    0.0000 S   0  0  0  0  0  0  0  0  0  0  0  0
    8.8875    1.0958    0.0000 C   0  0  0  0  0  0  0  0  0  0  0  0
    8.9667    0.3500    0.0000 N   0  0  0  0  0  0  0  0  0  0  0  0
    9.7000    0.1958    0.0000 N   0  0  0  0  0  0  0  0  0  0  0  0
   10.0750    0.8458    0.0000 C   0  0  0  0  0  0  0  0  0  0  0  0
    6.2875    1.0958    0.0000 C   0  0  0  0  0  0  0  0  0  0  0  0
    5.6417    1.4708    0.0000 C   0  0  0  0  0  0  0  0  0  0  0  0
    4.9917    1.0958    0.0000 C   0  0  0  0  0  0  0  0  0  0  0  0
    6.9375    1.4708    0.0000 C   0  0  0  0  0  0  0  0  0  0  0  0
    8.2375    1.4708    0.0000 S   0  0  0  0  0  0  0  0  0  0  0  0
    4.9917    0.3458    0.0000 C   0  0  0  0  0  0  0  0  0  0  0  0
    7.5875    1.0958    0.0000 C   0  0  0  0  0  0  0  0  0  0  0  0
    6.2875    0.3458    0.0000 C   0  0  0  0  0  0  0  0  0  0  0  0
    6.9375    2.2208    0.0000 O   0  0  0  0  0  0  0  0  0  0  0  0
    5.6417   -0.0292    0.0000 C   0  0  0  0  0  0  0  0  0  0  0  0
    4.3417    1.4708    0.0000 O   0  0  0  0  0  0  0  0  0  0  0  0
    4.3417   -0.0292    0.0000 O   0  0  0  0  0  0  0  0  0  0  0  0
   10.8167    0.9208    0.0000 C   0  0  0  0  0  0  0  0  0  0  0  0
  2  1  1  0  0  0  0
  3  2  2  0  0  0  0
  4  5  2  0  0  0  0
  5  1  1  0  0  0  0
  6  9  1  0  0  0  0
  7  6  2  0  0  0  0
  8  7  1  0  0  0  0
  9 12  1  0  0  0  0
 10  2  1  0  0  0  0
 11 15  1  0  0  0  0
 12 10  1  0  0  0  0
 13  6  1  0  0  0  0
 14  9  2  0  0  0  0
 15 13  2  0  0  0  0
 16  8  1  0  0  0  0
 17 11  1  0  0  0  0
 18  5  1  0  0  0  0
  4  3  1  0  0  0  0
 11  8  2  0  0  0  0
M  END
> <#>
1385

> <PLATE>
LAT018

> <ROW>
A

> <COL>
5

> <COORD>
A05

> <LATID>
LAT018A05

> <Supplier>
Chembridge

> <Suplier_CAT#>
7929766

> <Name>
Novel

> <Concentration_(mM)>
2.5

> <IC50_(µM)>
inactive

> <Yeast_Active?>
-

> <Pubchem_CID>
2222624

$$$$
