
  -ISIS-  08130814242D

 23 24  0  0  0  0  0  0  0  0999 V2000
    0.3042    0.4625    0.0000 S   0  0  3  0  0  0  0  0  0  0  0  0
   -0.0458   -0.0792    0.0000 C   0  0  0  0  0  0  0  0  0  0  0  0
    0.6375    1.0333    0.0000 N   0  0  0  0  0  0  0  0  0  0  0  0
    0.2667   -0.6792    0.0000 C   0  0  0  0  0  0  0  0  0  0  0  0
   -0.2333    0.7958    0.0000 O   0  0  0  0  0  0  0  0  0  0  0  0
    0.8667    0.1000    0.0000 O   0  0  0  0  0  0  0  0  0  0  0  0
   -0.1000   -1.2500    0.0000 C   0  0  0  0  0  0  0  0  0  0  0  0
   -0.7625   -1.2167    0.0000 C   0  0  0  0  0  0  0  0  0  0  0  0
    2.6167    1.0333    0.0000 C   0  0  0  0  0  0  0  0  0  0  0  0
   -0.7125   -0.0292    0.0000 C   0  0  0  0  0  0  0  0  0  0  0  0
   -1.0833   -0.6167    0.0000 C   0  0  0  0  0  0  0  0  0  0  0  0
    1.3000    1.0333    0.0000 C   0  0  0  0  0  0  0  0  0  0  0  0
    2.2875    1.6125    0.0000 C   0  0  0  0  0  0  0  0  0  0  0  0
    2.2875    0.4500    0.0000 C   0  0  0  0  0  0  0  0  0  0  0  0
    3.2792    1.0333    0.0000 C   0  0  3  0  0  0  0  0  0  0  0  0
    1.6292    1.6125    0.0000 C   0  0  0  0  0  0  0  0  0  0  0  0
    1.6292    0.4500    0.0000 C   0  0  0  0  0  0  0  0  0  0  0  0
    0.2000   -1.8167    0.0000 O   0  0  0  0  0  0  0  0  0  0  0  0
   -1.1208   -1.7667    0.0000 O   0  0  0  0  0  0  0  0  0  0  0  0
    3.6042    0.4625    0.0000 C   0  0  0  0  0  0  0  0  0  0  0  0
    3.6042    1.6000    0.0000 C   0  0  0  0  0  0  0  0  0  0  0  0
   -0.1708   -2.3875    0.0000 C   0  0  0  0  0  0  0  0  0  0  0  0
   -1.7958   -1.7375    0.0000 C   0  0  0  0  0  0  0  0  0  0  0  0
  2  1  1  0  0  0  0
  3  1  1  0  0  0  0
  4  2  2  0  0  0  0
  5  1  2  0  0  0  0
  6  1  2  0  0  0  0
  7  4  1  0  0  0  0
  8 11  1  0  0  0  0
  9 14  2  0  0  0  0
 10  2  1  0  0  0  0
 11 10  2  0  0  0  0
 12  3  1  0  0  0  0
 13 16  2  0  0  0  0
 14 17  1  0  0  0  0
 15  9  1  0  0  0  0
 16 12  1  0  0  0  0
 17 12  2  0  0  0  0
 18  7  1  0  0  0  0
 19  8  1  0  0  0  0
 20 15  1  0  0  0  0
 21 15  1  0  0  0  0
 22 18  1  0  0  0  0
 23 19  1  0  0  0  0
  9 13  1  0  0  0  0
  8  7  2  0  0  0  0
M  END
> <#>
763

> <PLATE>
LAT010

> <ROW>
C

> <COL>
7

> <COORD>
C07

> <LATID>
LAT010C07

> <Supplier>
Chembridge

> <Suplier_CAT#>
5608105

> <Name>
Novel

> <Sec_Name>
184_A07

> <Concentration_(mM)>
2.5

> <IC50_(µM)>
95

> <Yeast_Active?>
-

> <Pubchem_CID>
740564

$$$$
