
  -ISIS-  08130814242D

 21 23  0  0  0  0  0  0  0  0999 V2000
    6.3875   -4.2542    0.0000 S   0  0  3  0  0  0  0  0  0  0  0  0
    5.6667   -3.8417    0.0000 C   0  0  0  0  0  0  0  0  0  0  0  0
    7.1000   -3.8417    0.0000 N   0  0  0  0  0  0  0  0  0  0  0  0
    4.9625   -4.2500    0.0000 C   0  0  0  0  0  0  0  0  0  0  0  0
    4.2500   -3.8417    0.0000 C   0  0  0  0  0  0  0  0  0  0  0  0
    6.7917   -4.9667    0.0000 O   0  0  0  0  0  0  0  0  0  0  0  0
    5.9667   -4.9667    0.0000 O   0  0  0  0  0  0  0  0  0  0  0  0
    4.2500   -3.0167    0.0000 C   0  0  0  0  0  0  0  0  0  0  0  0
    3.5375   -4.2542    0.0000 O   0  0  0  0  0  0  0  0  0  0  0  0
    9.2292   -4.2500    0.0000 N   0  0  0  0  0  0  0  0  0  0  0  0
    7.8125   -4.2542    0.0000 C   0  0  0  0  0  0  0  0  0  0  0  0
    3.5375   -2.6042    0.0000 O   0  0  0  0  0  0  0  0  0  0  0  0
    5.6750   -3.0125    0.0000 C   0  0  0  0  0  0  0  0  0  0  0  0
    4.9625   -2.6000    0.0000 C   0  0  0  0  0  0  0  0  0  0  0  0
    8.5250   -3.8417    0.0000 C   0  0  0  0  0  0  0  0  0  0  0  0
    9.9500   -3.8417    0.0000 C   0  0  0  0  0  0  0  0  0  0  0  0
    2.8167   -3.8417    0.0000 C   0  0  0  0  0  0  0  0  0  0  0  0
    2.8250   -3.0167    0.0000 C   0  0  0  0  0  0  0  0  0  0  0  0
    8.5250   -3.0167    0.0000 C   0  0  0  0  0  0  0  0  0  0  0  0
    9.9500   -3.0167    0.0000 C   0  0  0  0  0  0  0  0  0  0  0  0
    9.2375   -2.6042    0.0000 C   0  0  0  0  0  0  0  0  0  0  0  0
  2  1  1  0  0  0  0
  3  1  1  0  0  0  0
  4  2  1  0  0  0  0
  5  4  2  0  0  0  0
  6  1  2  0  0  0  0
  7  1  2  0  0  0  0
  8 14  2  0  0  0  0
  9  5  1  0  0  0  0
 10 15  1  0  0  0  0
 11  3  1  0  0  0  0
 12  8  1  0  0  0  0
 13  2  2  0  0  0  0
 14 13  1  0  0  0  0
 15 11  1  0  0  0  0
 16 10  2  0  0  0  0
 17  9  1  0  0  0  0
 18 12  1  0  0  0  0
 19 15  2  0  0  0  0
 20 21  2  0  0  0  0
 21 19  1  0  0  0  0
  5  8  1  0  0  0  0
 16 20  1  0  0  0  0
 18 17  1  0  0  0  0
M  END
> <#>
1945

> <PLATE>
LAT025

> <ROW>
A

> <COL>
5

> <COORD>
A05

> <LATID>
LAT025A05

> <Supplier>
Chembridge

> <Suplier_CAT#>
6425037

> <Name>
Novel

> <Concentration_(mM)>
2.5

> <IC50_(µM)>
inactive

> <Yeast_Active?>
-

> <Pubchem_CID>
662272

$$$$
