
  -ISIS-  08130814242D

 24 27  0  0  0  0  0  0  0  0999 V2000
   -0.0458    0.3208    0.0000 C   0  0  0  0  0  0  0  0  0  0  0  0
    0.9792    0.9125    0.0000 C   0  0  0  0  0  0  0  0  0  0  0  0
    2.0375    0.3000    0.0000 C   0  0  3  0  0  0  0  0  0  0  0  0
    0.9792   -1.5000    0.0000 C   0  0  0  0  0  0  0  0  0  0  0  0
   -0.0458   -0.9042    0.0000 N   0  0  0  0  0  0  0  0  0  0  0  0
    2.0375   -0.9042    0.0000 N   0  0  0  0  0  0  0  0  0  0  0  0
   -1.0833    0.9333    0.0000 C   0  0  0  0  0  0  0  0  0  0  0  0
    3.0792    0.9125    0.0000 C   0  0  0  0  0  0  0  0  0  0  0  0
    0.9792    2.1208    0.0000 C   0  0  0  0  0  0  0  0  0  0  0  0
   -1.0833    2.1208    0.0000 C   0  0  0  0  0  0  0  0  0  0  0  0
    0.9792   -2.7042    0.0000 S   0  0  0  0  0  0  0  0  0  0  0  0
   -2.1208    0.3208    0.0000 C   0  0  0  0  0  0  0  0  0  0  0  0
    4.1167    0.3000    0.0000 C   0  0  0  0  0  0  0  0  0  0  0  0
   -0.0458    2.7333    0.0000 C   0  0  0  0  0  0  0  0  0  0  0  0
   -2.1208    2.7333    0.0000 C   0  0  0  0  0  0  0  0  0  0  0  0
   -3.1625    0.9333    0.0000 C   0  0  0  0  0  0  0  0  0  0  0  0
    4.1167   -0.9042    0.0000 F   0  0  0  0  0  0  0  0  0  0  0  0
   -3.1625    2.1208    0.0000 C   0  0  0  0  0  0  0  0  0  0  0  0
    3.0792    2.1000    0.0000 C   0  0  0  0  0  0  0  0  0  0  0  0
   -4.2083    0.3458    0.0000 O   0  0  0  0  0  0  0  0  0  0  0  0
    5.1542    0.8958    0.0000 C   0  0  0  0  0  0  0  0  0  0  0  0
   -4.1958   -0.8500    0.0000 C   0  0  0  0  0  0  0  0  0  0  0  0
    4.1000    2.7125    0.0000 C   0  0  0  0  0  0  0  0  0  0  0  0
    5.1542    2.1000    0.0000 C   0  0  0  0  0  0  0  0  0  0  0  0
  2  1  2  0  0  0  0
  3  2  1  0  0  0  0
  4  5  1  0  0  0  0
  5  1  1  0  0  0  0
  6  4  1  0  0  0  0
  7  1  1  0  0  0  0
  8  3  1  0  0  0  0
  9  2  1  0  0  0  0
 10  7  2  0  0  0  0
 11  4  2  0  0  0  0
 12  7  1  0  0  0  0
 13  8  1  0  0  0  0
 14 10  1  0  0  0  0
 15 10  1  0  0  0  0
 16 12  2  0  0  0  0
 17 13  1  0  0  0  0
 18 16  1  0  0  0  0
 19  8  2  0  0  0  0
 20 16  1  0  0  0  0
 21 13  2  0  0  0  0
 22 20  1  0  0  0  0
 23 19  1  0  0  0  0
 24 23  2  0  0  0  0
  9 14  1  0  0  0  0
  6  3  1  0  0  0  0
 18 15  2  0  0  0  0
 24 21  1  0  0  0  0
M  END
> <#>
750

> <PLATE>
LAT010

> <ROW>
F

> <COL>
5

> <COORD>
F05

> <LATID>
LAT010F05

> <Supplier>
Chembridge

> <Suplier_CAT#>
5601485

> <Name>
Novel

> <Sec_Name>
182_C02

> <Concentration_(mM)>
2.5

> <IC50_(µM)>
30

> <Yeast_Active?>
-

> <Pubchem_CID>
714043

$$$$
