
  -ISIS-  08130814242D

 21 23  0  0  0  0  0  0  0  0999 V2000
   -1.0208    0.8208    0.0000 C   0  0  0  0  0  0  0  0  0  0  0  0
   -1.6000    1.1500    0.0000 C   0  0  0  0  0  0  0  0  0  0  0  0
   -1.0208    0.1625    0.0000 C   0  0  0  0  0  0  0  0  0  0  0  0
   -0.4458    1.1500    0.0000 C   0  0  0  0  0  0  0  0  0  0  0  0
    0.1375    0.8208    0.0000 C   0  0  0  0  0  0  0  0  0  0  0  0
   -1.6000   -0.1667    0.0000 C   0  0  0  0  0  0  0  0  0  0  0  0
   -2.1833    0.8208    0.0000 C   0  0  0  0  0  0  0  0  0  0  0  0
   -2.1833    0.1625    0.0000 C   0  0  0  0  0  0  0  0  0  0  0  0
    0.7167    1.1500    0.0000 C   0  0  0  0  0  0  0  0  0  0  0  0
   -0.4458   -0.1667    0.0000 C   0  0  0  0  0  0  0  0  0  0  0  0
    0.1375    0.1625    0.0000 C   0  0  0  0  0  0  0  0  0  0  0  0
   -1.6000    1.8125    0.0000 O   0  0  0  0  0  0  0  0  0  0  0  0
   -1.6000   -0.8292    0.0000 O   0  0  0  0  0  0  0  0  0  0  0  0
    1.3000    0.8208    0.0000 O   0  0  0  0  0  0  0  0  0  0  0  0
   -0.4458    1.8000    0.0000 O   0  0  0  0  0  0  0  0  0  0  0  0
    0.7167    1.8125    0.0000 O   0  0  0  0  0  0  0  0  0  0  0  0
   -2.7625    1.1500    0.0000 C   0  0  0  0  0  0  0  0  0  0  0  0
   -2.7625   -0.1667    0.0000 C   0  0  0  0  0  0  0  0  0  0  0  0
    0.1500    2.1458    0.0000 C   0  0  0  0  0  0  0  0  0  0  0  0
   -3.3458    0.8208    0.0000 C   0  0  0  0  0  0  0  0  0  0  0  0
   -3.3458    0.1625    0.0000 C   0  0  0  0  0  0  0  0  0  0  0  0
  2  1  1  0  0  0  0
  3  1  2  0  0  0  0
  4  1  1  0  0  0  0
  5  4  2  0  0  0  0
  6  3  1  0  0  0  0
  7  2  1  0  0  0  0
  8  6  1  0  0  0  0
  9  5  1  0  0  0  0
 10  3  1  0  0  0  0
 11  5  1  0  0  0  0
 12  2  2  0  0  0  0
 13  6  2  0  0  0  0
 14  9  2  0  0  0  0
 15  4  1  0  0  0  0
 16  9  1  0  0  0  0
 17  7  1  0  0  0  0
 18  8  1  0  0  0  0
 19 16  1  0  0  0  0
 20 17  2  0  0  0  0
 21 18  2  0  0  0  0
 10 11  2  0  0  0  0
  8  7  2  0  0  0  0
 21 20  1  0  0  0  0
M  END
> <#>
1206

> <PLATE>
LAT016

> <ROW>
F

> <COL>
2

> <COORD>
F02

> <LATID>
LAT016F02

> <Supplier>
Chembridge

> <Suplier_CAT#>
5814056

> <Name>
Novel

> <Concentration_(mM)>
2.5

> <IC50_(µM)>
inactive

> <Yeast_Active?>
+

> <Pubchem_CID>
NULL

$$$$
