
  -ISIS-  08130814242D

 20 21  0  0  0  0  0  0  0  0999 V2000
    6.6042   -3.1750    0.0000 C   0  0  0  0  0  0  0  0  0  0  0  0
    6.6042   -3.9042    0.0000 N   0  3  0  0  0  0  0  0  0  0  0  0
    7.4750   -2.6750    0.0000 C   0  0  0  0  0  0  0  0  0  0  0  0
    5.7417   -1.6750    0.0000 C   0  0  0  0  0  0  0  0  0  0  0  0
    4.8750   -1.1750    0.0000 C   0  0  0  0  0  0  0  0  0  0  0  0
    5.7417   -2.6750    0.0000 C   0  0  0  0  0  0  0  0  0  0  0  0
    4.0042   -1.6750    0.0000 C   0  0  0  0  0  0  0  0  0  0  0  0
    7.4750   -1.6750    0.0000 C   0  0  0  0  0  0  0  0  0  0  0  0
    6.6042   -1.1750    0.0000 C   0  0  0  0  0  0  0  0  0  0  0  0
    7.3542   -4.4042    0.0000 O   0  5  0  0  0  0  0  0  0  0  0  0
    5.7042   -4.5292    0.0000 O   0  0  0  0  0  0  0  0  0  0  0  0
    3.1417   -1.1750    0.0000 C   0  0  0  0  0  0  0  0  0  0  0  0
    4.8750   -0.1750    0.0000 O   0  0  0  0  0  0  0  0  0  0  0  0
    8.1625   -2.9917    0.0000 O   0  0  0  0  0  0  0  0  0  0  0  0
    8.1542   -1.3125    0.0000 O   0  0  0  0  0  0  0  0  0  0  0  0
    3.1417   -0.4500    0.0000 F   0  0  0  0  0  0  0  0  0  0  0  0
    4.0042   -2.6750    0.0000 C   0  0  0  0  0  0  0  0  0  0  0  0
    2.2750   -1.6750    0.0000 C   0  0  0  0  0  0  0  0  0  0  0  0
    3.1417   -3.1750    0.0000 C   0  0  0  0  0  0  0  0  0  0  0  0
    2.2750   -2.6750    0.0000 C   0  0  0  0  0  0  0  0  0  0  0  0
  2  1  1  0  0  0  0
  3  1  2  0  0  0  0
  4  6  2  0  0  0  0
  5  4  1  0  0  0  0
  6  1  1  0  0  0  0
  7  5  1  0  0  0  0
  8  3  1  0  0  0  0
  9  4  1  0  0  0  0
 10  2  1  0  0  0  0
 11  2  2  0  0  0  0
 12  7  1  0  0  0  0
 13  5  2  0  0  0  0
 14  3  1  0  0  0  0
 15  8  1  0  0  0  0
 16 12  1  0  0  0  0
 17  7  2  0  0  0  0
 18 12  2  0  0  0  0
 19 17  1  0  0  0  0
 20 19  2  0  0  0  0
  8  9  2  0  0  0  0
 18 20  1  0  0  0  0
M  CHG  2   2   1  10  -1
M  END
> <#>
271

> <PLATE>
LAT004

> <ROW>
G

> <COL>
5

> <COORD>
G05

> <LATID>
LAT004G05

> <Supplier>
Sigma

> <Suplier_CAT#>
R-108

> <Name>
RO 41-0960

> <Concentration_(mM)>
2.5

> <IC50_(µM)>
19

> <Yeast_Active?>
-

> <Pubchem_CID>
3495594

> <Description>
Specific, reversible, orally-active COMT-inhibitor

$$$$
