
  -ISIS-  08130814242D

 22 24  0  0  0  0  0  0  0  0999 V2000
    2.6542    0.2625    0.0000 C   0  0  0  0  0  0  0  0  0  0  0  0
    2.3000   -0.3792    0.0000 C   0  0  0  0  0  0  0  0  0  0  0  0
    3.4000    0.2625    0.0000 C   0  0  0  0  0  0  0  0  0  0  0  0
    2.3000    0.9000    0.0000 C   0  0  0  0  0  0  0  0  0  0  0  0
    3.7542   -0.3792    0.0000 C   0  0  0  0  0  0  0  0  0  0  0  0
    1.2000    0.2833    0.0000 N   0  0  0  0  0  0  0  0  0  0  0  0
    2.6792   -1.0167    0.0000 C   0  0  0  0  0  0  0  0  0  0  0  0
    3.3792   -1.0167    0.0000 C   0  0  0  0  0  0  0  0  0  0  0  0
    1.5542    0.9000    0.0000 N   0  0  0  0  0  0  0  0  0  0  0  0
    2.6542    1.5458    0.0000 O   0  0  0  0  0  0  0  0  0  0  0  0
   -1.0208   -1.0167    0.0000 N   0  0  0  0  0  0  0  0  0  0  0  0
    0.4542    0.2833    0.0000 C   0  0  0  0  0  0  0  0  0  0  0  0
    0.0792   -0.3792    0.0000 C   0  0  0  0  0  0  0  0  0  0  0  0
    3.7667    0.8958    0.0000 O   0  0  0  0  0  0  0  0  0  0  0  0
   -0.6625   -0.3792    0.0000 C   0  0  0  0  0  0  0  0  0  0  0  0
   -0.6625   -1.6375    0.0000 C   0  0  0  0  0  0  0  0  0  0  0  0
    2.2875   -1.6500    0.0000 C   0  0  0  0  0  0  0  0  0  0  0  0
    3.7667   -1.6500    0.0000 C   0  0  0  0  0  0  0  0  0  0  0  0
    0.4375   -1.0167    0.0000 C   0  0  0  0  0  0  0  0  0  0  0  0
    0.0792   -1.6375    0.0000 C   0  0  0  0  0  0  0  0  0  0  0  0
    3.4000   -2.2875    0.0000 C   0  0  0  0  0  0  0  0  0  0  0  0
    2.6542   -2.2875    0.0000 C   0  0  0  0  0  0  0  0  0  0  0  0
  2  1  2  0  0  0  0
  3  1  1  0  0  0  0
  4  1  1  0  0  0  0
  5  3  2  0  0  0  0
  6  9  1  0  0  0  0
  7  2  1  0  0  0  0
  8  5  1  0  0  0  0
  9  4  1  0  0  0  0
 10  4  2  0  0  0  0
 11 15  1  0  0  0  0
 12  6  2  0  0  0  0
 13 12  1  0  0  0  0
 14  3  1  0  0  0  0
 15 13  2  0  0  0  0
 16 20  1  0  0  0  0
 17  7  1  0  0  0  0
 18  8  1  0  0  0  0
 19 13  1  0  0  0  0
 20 19  2  0  0  0  0
 21 18  2  0  0  0  0
 22 17  2  0  0  0  0
  8  7  2  0  0  0  0
 21 22  1  0  0  0  0
 16 11  2  0  0  0  0
M  END
> <#>
1658

> <PLATE>
LAT021

> <ROW>
B

> <COL>
9

> <COORD>
B09

> <LATID>
LAT021B09

> <Supplier>
Chembridge

> <Suplier_CAT#>
5332359

> <Name>
Novel

> <Concentration_(mM)>
2.5

> <IC50_(µM)>
>100

> <Yeast_Active?>
-

> <Pubchem_CID>
843989

$$$$
