
  -ISIS-  08130814242D

 20 21  0  0  0  0  0  0  0  0999 V2000
    6.3667    1.5708    0.0000 C   0  0  0  0  0  0  0  0  0  0  0  0
    7.0167    1.1958    0.0000 N   0  0  0  0  0  0  0  0  0  0  0  0
    5.7167    1.1958    0.0000 C   0  0  0  0  0  0  0  0  0  0  0  0
    8.3167    0.4458    0.0000 N   0  0  0  0  0  0  0  0  0  0  0  0
    6.3667    2.3208    0.0000 O   0  0  0  0  0  0  0  0  0  0  0  0
    5.0667    1.5708    0.0000 C   0  0  0  0  0  0  0  0  0  0  0  0
    2.4750    1.5708    0.0000 C   0  0  0  0  0  0  0  0  0  0  0  0
    1.8250    1.1958    0.0000 C   0  0  0  0  0  0  0  0  0  0  0  0
    7.6667    1.5708    0.0000 C   0  0  0  0  0  0  0  0  0  0  0  0
    8.3167    1.1958    0.0000 C   0  0  0  0  0  0  0  0  0  0  0  0
    4.4167    1.1958    0.0000 C   0  0  0  0  0  0  0  0  0  0  0  0
    3.7750    1.5708    0.0000 O   0  0  0  0  0  0  0  0  0  0  0  0
    5.7167    0.4458    0.0000 C   0  0  0  0  0  0  0  0  0  0  0  0
    5.0667    0.0708    0.0000 C   0  0  0  0  0  0  0  0  0  0  0  0
    3.1250    1.1958    0.0000 C   0  0  0  0  0  0  0  0  0  0  0  0
    8.9667    0.0708    0.0000 C   0  0  0  0  0  0  0  0  0  0  0  0
    4.4167    0.4458    0.0000 C   0  0  0  0  0  0  0  0  0  0  0  0
    8.9667    1.5708    0.0000 C   0  0  0  0  0  0  0  0  0  0  0  0
    9.6167    0.4458    0.0000 C   0  0  0  0  0  0  0  0  0  0  0  0
    9.6167    1.1958    0.0000 C   0  0  0  0  0  0  0  0  0  0  0  0
  2  1  1  0  0  0  0
  3  1  1  0  0  0  0
  4 10  1  0  0  0  0
  5  1  2  0  0  0  0
  6  3  1  0  0  0  0
  7 15  1  0  0  0  0
  8  7  2  0  0  0  0
  9  2  1  0  0  0  0
 10  9  1  0  0  0  0
 11  6  2  0  0  0  0
 12 11  1  0  0  0  0
 13  3  2  0  0  0  0
 14 13  1  0  0  0  0
 15 12  1  0  0  0  0
 16  4  2  0  0  0  0
 17 14  2  0  0  0  0
 18 10  2  0  0  0  0
 19 20  2  0  0  0  0
 20 18  1  0  0  0  0
 17 11  1  0  0  0  0
 16 19  1  0  0  0  0
M  END
> <#>
1497

> <PLATE>
LAT019

> <ROW>
A

> <COL>
9

> <COORD>
A09

> <LATID>
LAT019A09

> <Supplier>
Chembridge

> <Suplier_CAT#>
9012155

> <Name>
Novel

> <Concentration_(mM)>
2.5

> <IC50_(µM)>
>100

> <Yeast_Active?>
-

> <Pubchem_CID>
2995176

$$$$
