
  -ISIS-  08130814242D

 10  9  0  0  0  0  0  0  0  0999 V2000
    5.8829   -4.5024    0.0000 O   0  0  0  0  0  0  0  0  0  0  0  0
    4.0802   -4.5053    0.0000 O   0  0  0  0  0  0  0  0  0  0  0  0
    4.9664   -2.5670    0.0000 N   0  0  0  0  0  0  0  0  0  0  0  0
    3.0238   -3.4645    0.0000 O   0  0  0  0  0  0  0  0  0  0  0  0
    5.6407   -3.0655    0.0000 C   0  0  0  0  0  0  0  0  0  0  0  0
    5.3969   -3.8368    0.0000 C   0  0  2  0  0  0  0  0  0  0  0  0
    4.5648   -3.8368    0.0000 C   0  0  1  0  0  0  0  0  0  0  0  0
    4.2976   -3.0544    0.0000 C   0  0  1  0  0  0  0  0  0  0  0  0
    3.5202   -2.8087    0.0000 C   0  0  0  0  0  0  0  0  0  0  0  0
    8.3792   -3.6750    0.0000 Cl  0  0  0  0  0  0  0  0  0  0  0  0
  8  3  1  0  0  0  0
  8  7  1  0  0  0  0
  3  5  1  0  0  0  0
  7  6  1  0  0  0  0
  5  6  1  0  0  0  0
  8  9  1  1  0  0  0
  9  4  1  0  0  0  0
  6  1  1  1  0  0  0
  7  2  1  6  0  0  0
M  END
> <#>
220

> <PLATE>
LAT003

> <ROW>
D

> <COL>
9

> <COORD>
D09

> <LATID>
LAT003D09

> <Supplier>
Sigma

> <Suplier_CAT#>
D 1542

> <Name>
1,4-Dideoxy-1,4-Imino-D-Arabinitol

> <Concentration_(mM)>
2.5

> <IC50_(µM)>
7.8

> <Yeast_Active?>
-

> <Pubchem_CID>
1335

> <Description>
Allosteric glycogen phosphorylase inhibitor

> <LATCA_Notes>
Alpha-glycosidase inhibitor 

$$$$
