
  -ISIS-  08130814242D

 35 39  0  0  0  0  0  0  0  0999 V2000
    0.9875    1.0208    0.0000 C   0  0  0  0  0  0  0  0  0  0  0  0
    0.0292    1.5833    0.0000 C   0  0  0  0  0  0  0  0  0  0  0  0
   -0.2958    1.0208    0.0000 C   0  0  0  0  0  0  0  0  0  0  0  0
    0.6792    0.4708    0.0000 C   0  0  0  0  0  0  0  0  0  0  0  0
    0.6792    1.5833    0.0000 C   0  0  3  0  0  0  0  0  0  0  0  0
    0.0292    0.4708    0.0000 N   0  0  0  0  0  0  0  0  0  0  0  0
   -0.2958    2.1333    0.0000 C   0  0  0  0  0  0  0  0  0  0  0  0
    1.6375    1.0208    0.0000 C   0  0  0  0  0  0  0  0  0  0  0  0
   -0.9208    1.0208    0.0000 C   0  0  0  0  0  0  0  0  0  0  0  0
   -1.2500    1.5833    0.0000 C   0  0  3  0  0  0  0  0  0  0  0  0
   -0.9208    2.1333    0.0000 C   0  0  0  0  0  0  0  0  0  0  0  0
    0.0042    2.6833    0.0000 O   0  0  0  0  0  0  0  0  0  0  0  0
    1.2375    2.5500    0.0000 C   0  0  0  0  0  0  0  0  0  0  0  0
    1.9542    1.5833    0.0000 O   0  0  0  0  0  0  0  0  0  0  0  0
    1.2375    3.6458    0.0000 N   0  0  0  0  0  0  0  0  0  0  0  0
   -1.8833    1.5833    0.0000 C   0  0  0  0  0  0  0  0  0  0  0  0
    1.9542    0.4625    0.0000 O   0  0  0  0  0  0  0  0  0  0  0  0
    1.0042   -0.0875    0.0000 C   0  0  0  0  0  0  0  0  0  0  0  0
    0.9292    3.1083    0.0000 C   0  0  0  0  0  0  0  0  0  0  0  0
    2.6000    0.4625    0.0000 C   0  0  0  0  0  0  0  0  0  0  0  0
    3.5792   -0.1167    0.0000 C   0  0  0  0  0  0  0  0  0  0  0  0
    1.8875    3.6458    0.0000 C   0  0  0  0  0  0  0  0  0  0  0  0
    1.8875    2.5500    0.0000 C   0  0  0  0  0  0  0  0  0  0  0  0
    2.9167   -0.1167    0.0000 C   0  0  0  0  0  0  0  0  0  0  0  0
   -2.2125    1.0208    0.0000 C   0  0  0  0  0  0  0  0  0  0  0  0
   -2.2125    2.1333    0.0000 C   0  0  0  0  0  0  0  0  0  0  0  0
    3.9000   -0.6792    0.0000 C   0  0  0  0  0  0  0  0  0  0  0  0
    3.9000    0.4625    0.0000 C   0  0  0  0  0  0  0  0  0  0  0  0
    2.1875    3.1083    0.0000 C   0  0  0  0  0  0  0  0  0  0  0  0
   -2.8458    2.1333    0.0000 C   0  0  0  0  0  0  0  0  0  0  0  0
   -2.8458    1.0208    0.0000 C   0  0  0  0  0  0  0  0  0  0  0  0
    4.5375   -0.6792    0.0000 C   0  0  0  0  0  0  0  0  0  0  0  0
    4.5375    0.4625    0.0000 C   0  0  0  0  0  0  0  0  0  0  0  0
   -3.1708    1.5833    0.0000 C   0  0  0  0  0  0  0  0  0  0  0  0
    4.8542   -0.1167    0.0000 C   0  0  0  0  0  0  0  0  0  0  0  0
  2  5  1  0  0  0  0
  3  2  2  0  0  0  0
  4  1  2  0  0  0  0
  5  1  1  0  0  0  0
  6  4  1  0  0  0  0
  7  2  1  0  0  0  0
  8  1  1  0  0  0  0
  9  3  1  0  0  0  0
 10 11  1  0  0  0  0
 11  7  1  0  0  0  0
 12  7  2  0  0  0  0
 13  5  1  0  0  0  0
 14  8  2  0  0  0  0
 15 19  2  0  0  0  0
 16 10  1  0  0  0  0
 17  8  1  0  0  0  0
 18  4  1  0  0  0  0
 19 13  1  0  0  0  0
 20 17  1  0  0  0  0
 21 24  1  0  0  0  0
 22 29  2  0  0  0  0
 23 13  2  0  0  0  0
 24 20  1  0  0  0  0
 25 16  1  0  0  0  0
 26 16  2  0  0  0  0
 27 21  2  0  0  0  0
 28 21  1  0  0  0  0
 29 23  1  0  0  0  0
 30 26  1  0  0  0  0
 31 25  2  0  0  0  0
 32 27  1  0  0  0  0
 33 28  2  0  0  0  0
 34 30  2  0  0  0  0
 35 33  1  0  0  0  0
  6  3  1  0  0  0  0
 15 22  1  0  0  0  0
 10  9  1  0  0  0  0
 35 32  2  0  0  0  0
 31 34  1  0  0  0  0
M  END
> <#>
989

> <PLATE>
LAT013

> <ROW>
E

> <COL>
5

> <COORD>
E05

> <LATID>
LAT013E05

> <Supplier>
Chembridge

> <Suplier_CAT#>
5727629

> <Name>
Novel

> <Sec_Name>
229_H03

> <Concentration_(mM)>
2.5

> <IC50_(µM)>
29

> <Yeast_Active?>
-

> <Pubchem_CID>
1123239

$$$$
