
  -ISIS-  08130814242D

 10  9  0  0  0  0  0  0  0  0999 V2000
    6.2667   -3.8172    0.0000 C   0  0  0  0  0  0  0  0  0  0  0  0
    6.8917   -4.8998    0.0000 C   0  0  1  0  0  0  0  0  0  0  0  0
    6.2667   -5.9823    0.0000 C   0  0  3  0  0  0  0  0  0  0  0  0
    6.8917   -7.0648    0.0000 C   0  0  1  0  0  0  0  0  0  0  0  0
    8.1417   -7.0648    0.0000 C   0  0  0  0  0  0  0  0  0  0  0  0
    8.7667   -5.9823    0.0000 O   0  0  0  0  0  0  0  0  0  0  0  0
    6.2667   -8.1474    0.0000 O   0  0  0  0  0  0  0  0  0  0  0  0
    5.0167   -5.9823    0.0000 O   0  0  0  0  0  0  0  0  0  0  0  0
    8.1417   -4.8998    0.0000 O   0  0  0  0  0  0  0  0  0  0  0  0
    5.0167   -3.8172    0.0000 O   0  0  0  0  0  0  0  0  0  0  0  0
  1  2  1  0  0  0  0
  2  3  1  0  0  0  0
  3  4  1  0  0  0  0
  4  5  1  0  0  0  0
  5  6  1  0  0  0  0
  4  7  1  1  0  0  0
  3  8  1  0  0  0  0
  2  9  1  6  0  0  0
  1 10  1  0  0  0  0
M  END
> <#>
417

> <PLATE>
LAT006

> <ROW>
A

> <COL>
4

> <COORD>
A04

> <LATID>
LAT006A04

> <Supplier>
Nutirional Biochemicals

> <Suplier_CAT#>
Ribitol

> <Name>
Ribitol

> <Concentration_(mM)>
2.5

> <IC50_(µM)>
inactive

> <Yeast_Active?>
-

> <Pubchem_CID>
827

$$$$
