
  -ISIS-  08130814242D

 16 17  0  0  0  0  0  0  0  0999 V2000
   -1.2708    1.7958    0.0000 N   0  0  0  0  0  0  0  0  0  0  0  0
   -2.6500    1.7708    0.0000 C   0  0  0  0  0  0  0  0  0  0  0  0
   -1.9708    1.3958    0.0000 C   0  0  0  0  0  0  0  0  0  0  0  0
   -3.3458    1.3958    0.0000 C   0  0  0  0  0  0  0  0  0  0  0  0
    1.6792    2.1500    0.0000 N   0  0  0  0  0  0  0  0  0  0  0  0
   -1.9708    0.6000    0.0000 C   0  0  0  0  0  0  0  0  0  0  0  0
    0.3500    2.1333    0.0000 C   0  0  0  0  0  0  0  0  0  0  0  0
   -0.3000    1.7458    0.0000 C   0  0  0  0  0  0  0  0  0  0  0  0
   -3.3458    0.6000    0.0000 C   0  0  0  0  0  0  0  0  0  0  0  0
   -2.6500    0.2000    0.0000 C   0  0  0  0  0  0  0  0  0  0  0  0
   -4.0208    0.2208    0.0000 Br  0  0  0  0  0  0  0  0  0  0  0  0
    1.0042    1.7625    0.0000 C   0  0  0  0  0  0  0  0  0  0  0  0
   -2.6500    2.5458    0.0000 C   0  0  0  0  0  0  0  0  0  0  0  0
    1.6792    2.9125    0.0000 C   0  0  0  0  0  0  0  0  0  0  0  0
    0.3500    2.9125    0.0000 C   0  0  0  0  0  0  0  0  0  0  0  0
    1.0042    3.3000    0.0000 C   0  0  0  0  0  0  0  0  0  0  0  0
  2  3  2  0  0  0  0
  3  1  1  0  0  0  0
  4  2  1  0  0  0  0
  5 12  2  0  0  0  0
  6  3  1  0  0  0  0
  7  8  1  0  0  0  0
  8  1  1  0  0  0  0
  9 10  1  0  0  0  0
 10  6  2  0  0  0  0
 11  9  1  0  0  0  0
 12  7  1  0  0  0  0
 13  2  1  0  0  0  0
 14 16  2  0  0  0  0
 15  7  2  0  0  0  0
 16 15  1  0  0  0  0
  9  4  2  0  0  0  0
 14  5  1  0  0  0  0
M  END
> <#>
1788

> <PLATE>
LAT023

> <ROW>
D

> <COL>
5

> <COORD>
D05

> <LATID>
LAT023D05

> <Supplier>
Chembridge

> <Suplier_CAT#>
5560833

> <Name>
Novel

> <Sec_Name>
172_E07

> <Concentration_(mM)>
2.5

> <IC50_(µM)>
14

> <Yeast_Active?>
-

> <Pubchem_CID>
751120

$$$$
