
  -ISIS-  08130814242D

  6  5  0  0  0  0  0  0  0  0999 V2000
   -3.4311    2.0559    0.0000 C   0  0  3  0  0  0  0  0  0  0  0  0
   -4.0561    0.9733    0.0000 C   0  0  0  0  0  0  0  0  0  0  0  0
   -3.4311   -0.1092    0.0000 O   0  0  0  0  0  0  0  0  0  0  0  0
   -5.3061    0.9733    0.0000 C   0  0  0  0  0  0  0  0  0  0  0  0
   -4.0561    3.1384    0.0000 O   0  0  0  0  0  0  0  0  0  0  0  0
   -2.1811    2.0559    0.0000 O   0  0  0  0  0  0  0  0  0  0  0  0
  1  2  1  0  0  0  0
  2  3  2  0  0  0  0
  2  4  1  0  0  0  0
  1  5  1  0  0  0  0
  1  6  1  0  0  0  0
M  END
> <#>
388

> <PLATE>
LAT005

> <ROW>
D

> <COL>
10

> <COORD>
D10

> <LATID>
LAT005D10

> <Supplier>
Sigma

> <Suplier_CAT#>
D-7753

> <Name>
Dihydroxyacetone

> <Concentration_(mM)>
2.5

> <IC50_(µM)>
inactive

> <Yeast_Active?>
-

> <Pubchem_CID>
670

$$$$
