
  -ISIS-  08130814242D

 15 15  0  0  0  0  0  0  0  0999 V2000
    1.6042    1.1958    0.0000 S   0  0  0  0  0  0  0  0  0  0  0  0
    2.2917    1.5000    0.0000 C   0  0  0  0  0  0  0  0  0  0  0  0
    5.5417    1.1250    0.0000 N   0  0  0  0  0  0  0  0  0  0  0  0
    1.1042    1.7583    0.0000 C   0  0  0  0  0  0  0  0  0  0  0  0
    2.2167    2.2500    0.0000 C   0  0  0  0  0  0  0  0  0  0  0  0
    1.4792    2.4083    0.0000 C   0  0  0  0  0  0  0  0  0  0  0  0
    3.5917    1.5000    0.0000 N   0  0  0  0  0  0  0  0  0  0  0  0
    4.8917    1.5000    0.0000 C   0  0  0  0  0  0  0  0  0  0  0  0
    2.9417    1.1250    0.0000 C   0  0  0  0  0  0  0  0  0  0  0  0
    4.2417    1.1250    0.0000 C   0  0  0  0  0  0  0  0  0  0  0  0
    6.1917    1.5000    0.0000 C   0  0  0  0  0  0  0  0  0  0  0  0
    4.8917    2.2500    0.0000 C   0  0  0  0  0  0  0  0  0  0  0  0
    6.1917    2.2500    0.0000 C   0  0  0  0  0  0  0  0  0  0  0  0
    5.5417    2.6250    0.0000 C   0  0  0  0  0  0  0  0  0  0  0  0
    6.9417    1.1250    0.0000 Cl  0  0  0  0  0  0  0  0  0  0  0  0
  2  1  1  0  0  0  0
  3  8  2  0  0  0  0
  4  1  1  0  0  0  0
  5  2  2  0  0  0  0
  6  4  2  0  0  0  0
  7  9  1  0  0  0  0
  8 10  1  0  0  0  0
  9  2  1  0  0  0  0
 10  7  1  0  0  0  0
 11  3  1  0  0  0  0
 12  8  1  0  0  0  0
 13 14  1  0  0  0  0
 14 12  2  0  0  0  0
  6  5  1  0  0  0  0
 13 11  2  0  0  0  0
M  END
> <#>
1461

> <PLATE>
LAT019

> <ROW>
E

> <COL>
4

> <COORD>
E04

> <LATID>
LAT019E04

> <Supplier>
Chembridge

> <Suplier_CAT#>
9027760

> <Name>
Novel

> <Concentration_(mM)>
2.5

> <IC50_(µM)>
inactive

> <Yeast_Active?>
-

> <Pubchem_CID>
4719994

$$$$
