
  -ISIS-  08130814242D

 30 30  0  0  0  0  0  0  0  0999 V2000
   -3.1188    2.9059    0.0000 C   0  0  0  0  0  0  0  0  0  0  0  0
   -4.2014    2.2809    0.0000 C   0  0  0  0  0  0  0  0  0  0  0  0
   -4.2014    1.0309    0.0000 N   0  0  3  0  0  0  0  0  0  0  0  0
   -5.2839    0.4059    0.0000 C   0  0  0  0  0  0  0  0  0  0  0  0
   -5.2839   -0.8441    0.0000 C   0  0  0  0  0  0  0  0  0  0  0  0
   -3.1188    0.4059    0.0000 C   0  0  0  0  0  0  0  0  0  0  0  0
   -3.1188   -0.8441    0.0000 C   0  0  0  0  0  0  0  0  0  0  0  0
   -2.0363   -1.4691    0.0000 C   0  0  0  0  0  0  0  0  0  0  0  0
   -0.9538   -0.8441    0.0000 C   0  0  3  0  0  0  0  0  0  0  0  0
   -0.9538    0.4059    0.0000 C   0  0  0  0  0  0  0  0  0  0  0  0
    0.1288   -1.4691    0.0000 N   0  0  0  0  0  0  0  0  0  0  0  0
    1.2113   -0.8441    0.0000 C   0  0  0  0  0  0  0  0  0  0  0  0
    2.2938   -1.4691    0.0000 C   0  0  0  0  0  0  0  0  0  0  0  0
    2.2938   -2.7191    0.0000 C   0  0  0  0  0  0  0  0  0  0  0  0
    3.3764   -3.3441    0.0000 C   0  0  0  0  0  0  0  0  0  0  0  0
    4.4589   -2.7191    0.0000 C   0  0  0  0  0  0  0  0  0  0  0  0
    4.4589   -1.4691    0.0000 C   0  0  0  0  0  0  0  0  0  0  0  0
    3.3764   -0.8441    0.0000 C   0  0  0  0  0  0  0  0  0  0  0  0
    3.3764    0.4059    0.0000 N   0  0  0  0  0  0  0  0  0  0  0  0
    2.2938    1.0309    0.0000 C   0  0  0  0  0  0  0  0  0  0  0  0
    1.2113    0.4059    0.0000 C   0  0  0  0  0  0  0  0  0  0  0  0
    0.1288    1.0309    0.0000 C   0  0  0  0  0  0  0  0  0  0  0  0
    0.1288    2.2809    0.0000 C   0  0  0  0  0  0  0  0  0  0  0  0
    1.2113    2.9059    0.0000 C   0  0  0  0  0  0  0  0  0  0  0  0
    2.2938    2.2809    0.0000 C   0  0  0  0  0  0  0  0  0  0  0  0
    1.2113    4.1608    0.0000 Cl  0  0  0  0  0  0  0  0  0  0  0  0
    3.3764   -4.5941    0.0000 O   0  0  0  0  0  0  0  0  0  0  0  0
    4.4589   -5.2191    0.0000 C   0  0  0  0  0  0  0  0  0  0  0  0
    0.2203   -2.6563    0.0000 Cl  0  0  0  0  0  0  0  0  0  0  0  0
   -3.4984    1.3750    0.0000 Cl  0  0  0  0  0  0  0  0  0  0  0  0
  1  2  1  0  0  0  0
  2  3  1  0  0  0  0
  3  4  1  0  0  0  0
  4  5  1  0  0  0  0
  3  6  1  0  0  0  0
  6  7  1  0  0  0  0
  7  8  1  0  0  0  0
  8  9  1  0  0  0  0
  9 10  1  0  0  0  0
  9 11  1  0  0  0  0
 11 12  1  0  0  0  0
 12 13  2  0  0  0  0
 13 14  1  0  0  0  0
 14 15  2  0  0  0  0
 15 16  1  0  0  0  0
 16 17  2  0  0  0  0
 17 18  1  0  0  0  0
 13 18  1  0  0  0  0
 18 19  2  0  0  0  0
 19 20  1  0  0  0  0
 20 21  2  0  0  0  0
 12 21  1  0  0  0  0
 21 22  1  0  0  0  0
 22 23  2  0  0  0  0
 23 24  1  0  0  0  0
 24 25  2  0  0  0  0
 20 25  1  0  0  0  0
 24 26  1  0  0  0  0
 15 27  1  0  0  0  0
 27 28  1  0  0  0  0
M  END
> <#>
327

> <PLATE>
LAT005

> <ROW>
G

> <COL>
2

> <COORD>
G02

> <LATID>
LAT005G02

> <Supplier>
Sigma

> <Suplier_CAT#>
Q-0250

> <Name>
Quinacrine (Di Hydrochloride)

> <Concentration_(mM)>
2.5

> <IC50_(µM)>
inactive

> <Yeast_Active?>
-

> <Pubchem_CID>
237

$$$$
