
  -ISIS-  08130814242D

 23 25  0  0  0  0  0  0  0  0999 V2000
   -1.4958    0.1208    0.0000 C   0  0  0  0  0  0  0  0  0  0  0  0
   -2.0208    0.5500    0.0000 N   0  0  0  0  0  0  0  0  0  0  0  0
   -2.5958    0.1708    0.0000 C   0  0  0  0  0  0  0  0  0  0  0  0
   -2.4000   -0.4667    0.0000 O   0  0  0  0  0  0  0  0  0  0  0  0
   -1.7458   -0.5000    0.0000 C   0  0  0  0  0  0  0  0  0  0  0  0
   -0.8333    0.2333    0.0000 C   0  0  0  0  0  0  0  0  0  0  0  0
   -0.5958    0.8625    0.0000 N   0  0  0  0  0  0  0  0  0  0  0  0
    0.1167    0.9833    0.0000 C   0  0  0  0  0  0  0  0  0  0  0  0
    0.5875    0.4500    0.0000 C   0  0  0  0  0  0  0  0  0  0  0  0
    0.3292    1.6125    0.0000 C   0  0  0  0  0  0  0  0  0  0  0  0
   -3.1708    0.4958    0.0000 C   0  0  0  0  0  0  0  0  0  0  0  0
   -1.3708   -1.0667    0.0000 O   0  0  0  0  0  0  0  0  0  0  0  0
    1.2375    0.6000    0.0000 C   0  0  0  0  0  0  0  0  0  0  0  0
    1.0042    1.7625    0.0000 C   0  0  0  0  0  0  0  0  0  0  0  0
    1.4542    1.2500    0.0000 C   0  0  0  0  0  0  0  0  0  0  0  0
   -0.1000    2.1458    0.0000 C   0  0  0  0  0  0  0  0  0  0  0  0
    0.3875   -0.2167    0.0000 C   0  0  0  0  0  0  0  0  0  0  0  0
   -3.7500    0.1500    0.0000 C   0  0  0  0  0  0  0  0  0  0  0  0
   -3.1958    1.1708    0.0000 C   0  0  0  0  0  0  0  0  0  0  0  0
    2.1500    1.3708    0.0000 C   0  0  0  0  0  0  0  0  0  0  0  0
   -3.7708    1.5125    0.0000 C   0  0  0  0  0  0  0  0  0  0  0  0
   -4.3458    0.4833    0.0000 C   0  0  0  0  0  0  0  0  0  0  0  0
   -4.3458    1.1833    0.0000 C   0  0  0  0  0  0  0  0  0  0  0  0
  2  1  1  0  0  0  0
  3  2  2  0  0  0  0
  4  5  1  0  0  0  0
  5  1  1  0  0  0  0
  6  1  2  0  0  0  0
  7  6  1  0  0  0  0
  8  7  1  0  0  0  0
  9  8  1  0  0  0  0
 10  8  2  0  0  0  0
 11  3  1  0  0  0  0
 12  5  2  0  0  0  0
 13  9  2  0  0  0  0
 14 10  1  0  0  0  0
 15 14  2  0  0  0  0
 16 10  1  0  0  0  0
 17  9  1  0  0  0  0
 18 11  2  0  0  0  0
 19 11  1  0  0  0  0
 20 15  1  0  0  0  0
 21 19  2  0  0  0  0
 22 18  1  0  0  0  0
 23 21  1  0  0  0  0
  4  3  1  0  0  0  0
 15 13  1  0  0  0  0
 22 23  2  0  0  0  0
M  END
> <#>
848

> <PLATE>
LAT011

> <ROW>
H

> <COL>
7

> <COORD>
H07

> <LATID>
LAT011H07

> <Supplier>
Chembridge

> <Suplier_CAT#>
5649000

> <Name>
Novel

> <Sec_Name>
200_D09

> <Concentration_(mM)>
2.5

> <IC50_(µM)>
>100

> <Yeast_Active?>
-

> <Pubchem_CID>
NULL

$$$$
