
  -ISIS-  08130814242D

 26 28  0  0  0  0  0  0  0  0999 V2000
   -1.7958    0.3500    0.0000 C   0  0  0  0  0  0  0  0  0  0  0  0
   -2.8125    0.3500    0.0000 C   0  0  3  0  0  0  0  0  0  0  0  0
   -0.2708   -0.5292    0.0000 N   0  0  0  0  0  0  0  0  0  0  0  0
   -1.2958   -0.5292    0.0000 N   0  0  0  0  0  0  0  0  0  0  0  0
   -1.2958    1.2333    0.0000 O   0  0  0  0  0  0  0  0  0  0  0  0
   -2.8125    1.3708    0.0000 C   0  0  0  0  0  0  0  0  0  0  0  0
   -2.8125   -0.6667    0.0000 C   0  0  0  0  0  0  0  0  0  0  0  0
    0.2292   -1.4042    0.0000 C   0  0  0  0  0  0  0  0  0  0  0  0
   -3.8125    0.3500    0.0000 O   0  0  0  0  0  0  0  0  0  0  0  0
    1.7500   -0.5292    0.0000 C   0  0  0  0  0  0  0  0  0  0  0  0
    1.2500   -1.4042    0.0000 C   0  0  0  0  0  0  0  0  0  0  0  0
    2.7667   -0.5292    0.0000 C   0  0  0  0  0  0  0  0  0  0  0  0
    3.2875    0.3708    0.0000 Cl  0  0  0  0  0  0  0  0  0  0  0  0
    2.7500   -2.2667    0.0000 C   0  0  0  0  0  0  0  0  0  0  0  0
   -3.6958    1.8708    0.0000 C   0  0  0  0  0  0  0  0  0  0  0  0
   -1.9333   -1.1667    0.0000 C   0  0  0  0  0  0  0  0  0  0  0  0
   -3.6708   -1.1667    0.0000 C   0  0  0  0  0  0  0  0  0  0  0  0
   -1.9333    1.8708    0.0000 C   0  0  0  0  0  0  0  0  0  0  0  0
    3.2500   -1.4042    0.0000 C   0  0  0  0  0  0  0  0  0  0  0  0
    1.7500   -2.2667    0.0000 C   0  0  0  0  0  0  0  0  0  0  0  0
   -1.9333    2.8708    0.0000 C   0  0  0  0  0  0  0  0  0  0  0  0
   -3.6958    2.8958    0.0000 C   0  0  0  0  0  0  0  0  0  0  0  0
   -1.9333   -2.1875    0.0000 C   0  0  0  0  0  0  0  0  0  0  0  0
   -3.6708   -2.1667    0.0000 C   0  0  0  0  0  0  0  0  0  0  0  0
   -2.8125    3.3708    0.0000 C   0  0  0  0  0  0  0  0  0  0  0  0
   -2.8125   -2.6667    0.0000 C   0  0  0  0  0  0  0  0  0  0  0  0
  2  1  1  0  0  0  0
  3  4  1  0  0  0  0
  4  1  1  0  0  0  0
  5  1  2  0  0  0  0
  6  2  1  0  0  0  0
  7  2  1  0  0  0  0
  8  3  2  0  0  0  0
  9  2  1  0  0  0  0
 10 11  2  0  0  0  0
 11  8  1  0  0  0  0
 12 10  1  0  0  0  0
 13 12  1  0  0  0  0
 14 20  2  0  0  0  0
 15  6  2  0  0  0  0
 16  7  2  0  0  0  0
 17  7  1  0  0  0  0
 18  6  1  0  0  0  0
 19 14  1  0  0  0  0
 20 11  1  0  0  0  0
 21 18  2  0  0  0  0
 22 15  1  0  0  0  0
 23 16  1  0  0  0  0
 24 17  2  0  0  0  0
 25 21  1  0  0  0  0
 26 24  1  0  0  0  0
 26 23  2  0  0  0  0
 25 22  2  0  0  0  0
 19 12  2  0  0  0  0
M  END
> <#>
1051

> <PLATE>
LAT014

> <ROW>
C

> <COL>
3

> <COORD>
C03

> <LATID>
LAT014C03

> <Supplier>
Chembridge

> <Suplier_CAT#>
5555581

> <Name>
Novel

> <Concentration_(mM)>
2.5

> <IC50_(µM)>
24

> <Yeast_Active?>
-

> <Pubchem_CID>
1269531

$$$$
