
  -ISIS-  08130814242D

 24 25  0  0  0  0  0  0  0  0999 V2000
    4.8375    3.9000    0.0000 S   0  0  3  0  0  0  0  0  0  0  0  0
    4.4625    3.2500    0.0000 N   0  0  3  0  0  0  0  0  0  0  0  0
    3.7125    3.2500    0.0000 C   0  0  0  0  0  0  0  0  0  0  0  0
    4.8375    2.6000    0.0000 C   0  0  0  0  0  0  0  0  0  0  0  0
    3.3375    2.6000    0.0000 C   0  0  0  0  0  0  0  0  0  0  0  0
    4.4625    1.9583    0.0000 C   0  0  0  0  0  0  0  0  0  0  0  0
    4.3042    4.4167    0.0000 O   0  0  0  0  0  0  0  0  0  0  0  0
    5.4542    3.4708    0.0000 O   0  0  0  0  0  0  0  0  0  0  0  0
    4.8375    1.3000    0.0000 C   0  0  0  0  0  0  0  0  0  0  0  0
    5.5875    1.3000    0.0000 C   0  0  0  0  0  0  0  0  0  0  0  0
    2.5875    2.6000    0.0000 N   0  0  0  0  0  0  0  0  0  0  0  0
    1.0875    2.6000    0.0000 N   0  0  0  0  0  0  0  0  0  0  0  0
    5.5875    2.6000    0.0000 C   0  0  0  0  0  0  0  0  0  0  0  0
    3.7125    1.9583    0.0000 O   0  0  0  0  0  0  0  0  0  0  0  0
    5.9625    1.9583    0.0000 C   0  0  0  0  0  0  0  0  0  0  0  0
    5.3167    4.4667    0.0000 C   0  0  0  0  0  0  0  0  0  0  0  0
    1.4625    1.9583    0.0000 C   0  0  0  0  0  0  0  0  0  0  0  0
    2.2125    1.9583    0.0000 C   0  0  0  0  0  0  0  0  0  0  0  0
    5.9625    0.6500    0.0000 Br  0  0  0  0  0  0  0  0  0  0  0  0
    4.4625    0.6500    0.0000 C   0  0  0  0  0  0  0  0  0  0  0  0
    0.3375    2.6000    0.0000 C   0  0  0  0  0  0  0  0  0  0  0  0
    1.0875    1.3000    0.0000 C   0  0  0  0  0  0  0  0  0  0  0  0
   -0.0375    1.9583    0.0000 C   0  0  0  0  0  0  0  0  0  0  0  0
    0.3375    1.3000    0.0000 C   0  0  0  0  0  0  0  0  0  0  0  0
  2  1  1  0  0  0  0
  3  2  1  0  0  0  0
  4  2  1  0  0  0  0
  5  3  1  0  0  0  0
  6  4  2  0  0  0  0
  7  1  2  0  0  0  0
  8  1  2  0  0  0  0
  9  6  1  0  0  0  0
 10 15  1  0  0  0  0
 11  5  1  0  0  0  0
 12 17  1  0  0  0  0
 13  4  1  0  0  0  0
 14  5  2  0  0  0  0
 15 13  2  0  0  0  0
 16  1  1  0  0  0  0
 17 18  1  0  0  0  0
 18 11  1  0  0  0  0
 19 10  1  0  0  0  0
 20  9  1  0  0  0  0
 21 12  2  0  0  0  0
 22 17  2  0  0  0  0
 23 24  2  0  0  0  0
 24 22  1  0  0  0  0
 10  9  2  0  0  0  0
 21 23  1  0  0  0  0
M  END
> <#>
1578

> <PLATE>
LAT020

> <ROW>
B

> <COL>
9

> <COORD>
B09

> <LATID>
LAT020B09

> <Supplier>
Chembridge

> <Suplier_CAT#>
7958610

> <Name>
Novel

> <Concentration_(mM)>
2.5

> <IC50_(µM)>
inactive

> <Yeast_Active?>
-

> <Pubchem_CID>
2229016

$$$$
