
  -ISIS-  08130814242D

 20 21  0  0  0  0  0  0  0  0999 V2000
   -4.3208    0.2333    0.0000 N   0  3  0  0  0  0  0  0  0  0  0  0
   -3.3958    0.2333    0.0000 C   0  0  0  0  0  0  0  0  0  0  0  0
   -0.5958    0.2333    0.0000 C   0  0  0  0  0  0  0  0  0  0  0  0
   -2.9208   -0.5792    0.0000 C   0  0  0  0  0  0  0  0  0  0  0  0
   -1.5125    0.2333    0.0000 C   0  0  0  0  0  0  0  0  0  0  0  0
   -1.9833   -0.5792    0.0000 C   0  0  0  0  0  0  0  0  0  0  0  0
   -0.1333   -0.5542    0.0000 N   0  0  0  0  0  0  0  0  0  0  0  0
   -2.9208    1.0458    0.0000 C   0  0  0  0  0  0  0  0  0  0  0  0
   -4.7958    1.0333    0.0000 O   0  5  0  0  0  0  0  0  0  0  0  0
   -4.7708   -0.5667    0.0000 O   0  0  0  0  0  0  0  0  0  0  0  0
   -1.9833    1.0458    0.0000 C   0  0  0  0  0  0  0  0  0  0  0  0
   -0.1333    1.0208    0.0000 O   0  0  0  0  0  0  0  0  0  0  0  0
    2.6542    1.0208    0.0000 N   0  0  0  0  0  0  0  0  0  0  0  0
    1.2500    0.2333    0.0000 C   0  0  0  0  0  0  0  0  0  0  0  0
    0.7875   -0.5542    0.0000 C   0  0  0  0  0  0  0  0  0  0  0  0
    2.1792    0.2333    0.0000 C   0  0  0  0  0  0  0  0  0  0  0  0
   -3.3833   -1.3792    0.0000 C   0  0  0  0  0  0  0  0  0  0  0  0
    2.1917    1.8458    0.0000 C   0  0  0  0  0  0  0  0  0  0  0  0
    0.7875    1.0500    0.0000 C   0  0  0  0  0  0  0  0  0  0  0  0
    1.2542    1.8625    0.0000 C   0  0  0  0  0  0  0  0  0  0  0  0
  2  1  1  0  0  0  0
  3  5  1  0  0  0  0
  4  2  1  0  0  0  0
  5 11  2  0  0  0  0
  6  4  2  0  0  0  0
  7  3  1  0  0  0  0
  8  2  2  0  0  0  0
  9  1  1  0  0  0  0
 10  1  2  0  0  0  0
 11  8  1  0  0  0  0
 12  3  2  0  0  0  0
 13 16  1  0  0  0  0
 14 15  1  0  0  0  0
 15  7  1  0  0  0  0
 16 14  2  0  0  0  0
 17  4  1  0  0  0  0
 18 20  1  0  0  0  0
 19 14  1  0  0  0  0
 20 19  2  0  0  0  0
  5  6  1  0  0  0  0
 18 13  2  0  0  0  0
M  CHG  2   1   1   9  -1
M  END
> <#>
1067

> <PLATE>
LAT014

> <ROW>
C

> <COL>
5

> <COORD>
C05

> <LATID>
LAT014C05

> <Supplier>
Chembridge

> <Suplier_CAT#>
5509906

> <Name>
Novel

> <Concentration_(mM)>
2.5

> <IC50_(µM)>
>100

> <Yeast_Active?>
-

> <Pubchem_CID>
685056

$$$$
