
  -ISIS-  08130814242D

 28 30  0  0  0  0  0  0  0  0999 V2000
   -1.8708    0.5333    0.0000 N   0  0  3  0  0  0  0  0  0  0  0  0
   -0.2500    0.5333    0.0000 C   0  0  0  0  0  0  0  0  0  0  0  0
   -1.0625    0.0625    0.0000 C   0  0  0  0  0  0  0  0  0  0  0  0
   -1.8708    1.4708    0.0000 C   0  0  0  0  0  0  0  0  0  0  0  0
   -1.0625    1.9458    0.0000 N   0  0  0  0  0  0  0  0  0  0  0  0
   -0.2500    1.4708    0.0000 C   0  0  0  0  0  0  0  0  0  0  0  0
    0.5500    0.0625    0.0000 C   0  0  0  0  0  0  0  0  0  0  0  0
   -2.8500    0.5333    0.0000 C   0  0  0  0  0  0  0  0  0  0  0  0
   -2.6708    1.9458    0.0000 O   0  0  0  0  0  0  0  0  0  0  0  0
   -1.0708   -0.8667    0.0000 O   0  0  0  0  0  0  0  0  0  0  0  0
    0.5542    1.9458    0.0000 O   0  0  0  0  0  0  0  0  0  0  0  0
    3.3167    0.0833    0.0000 C   0  0  0  0  0  0  0  0  0  0  0  0
    4.2375    0.0833    0.0000 N   0  0  3  0  0  0  0  0  0  0  0  0
    1.4667    0.0625    0.0000 C   0  0  0  0  0  0  0  0  0  0  0  0
   -3.3208    1.3333    0.0000 C   0  0  0  0  0  0  0  0  0  0  0  0
   -3.3208   -0.2667    0.0000 C   0  0  0  0  0  0  0  0  0  0  0  0
    2.8500    0.8833    0.0000 C   0  0  0  0  0  0  0  0  0  0  0  0
    2.8500   -0.7000    0.0000 C   0  0  0  0  0  0  0  0  0  0  0  0
   -4.7083    0.5333    0.0000 C   0  0  0  0  0  0  0  0  0  0  0  0
    1.9292   -0.7000    0.0000 C   0  0  0  0  0  0  0  0  0  0  0  0
    1.9292    0.8833    0.0000 C   0  0  0  0  0  0  0  0  0  0  0  0
   -4.2708    1.3333    0.0000 C   0  0  0  0  0  0  0  0  0  0  0  0
   -4.2333   -0.2667    0.0000 C   0  0  0  0  0  0  0  0  0  0  0  0
   -5.6208    0.5333    0.0000 O   0  0  0  0  0  0  0  0  0  0  0  0
    4.6792   -0.7292    0.0000 C   0  0  0  0  0  0  0  0  0  0  0  0
    4.7042    0.8833    0.0000 C   0  0  0  0  0  0  0  0  0  0  0  0
   -6.0792   -0.2667    0.0000 C   0  0  0  0  0  0  0  0  0  0  0  0
   -7.0000   -0.2667    0.0000 C   0  0  0  0  0  0  0  0  0  0  0  0
  2  3  1  0  0  0  0
  3  1  1  0  0  0  0
  4  1  1  0  0  0  0
  5  4  1  0  0  0  0
  6  5  1  0  0  0  0
  7  2  2  0  0  0  0
  8  1  1  0  0  0  0
  9  4  2  0  0  0  0
 10  3  2  0  0  0  0
 11  6  2  0  0  0  0
 12 17  1  0  0  0  0
 13 12  1  0  0  0  0
 14  7  1  0  0  0  0
 15  8  2  0  0  0  0
 16  8  1  0  0  0  0
 17 21  2  0  0  0  0
 18 20  1  0  0  0  0
 19 23  1  0  0  0  0
 20 14  2  0  0  0  0
 21 14  1  0  0  0  0
 22 15  1  0  0  0  0
 23 16  2  0  0  0  0
 24 19  1  0  0  0  0
 25 13  1  0  0  0  0
 26 13  1  0  0  0  0
 27 24  1  0  0  0  0
 28 27  1  0  0  0  0
 22 19  2  0  0  0  0
  6  2  1  0  0  0  0
 12 18  2  0  0  0  0
M  END
> <#>
2038

> <PLATE>
LAT026

> <ROW>
F

> <COL>
6

> <COORD>
F06

> <LATID>
LAT026F06

> <Supplier>
Chembridge

> <Suplier_CAT#>
5472323

> <Sec_Name>
136_F05

> <Concentration_(mM)>
2.5

> <IC50_(µM)>
inactive

> <Yeast_Active?>
-

> <Pubchem_CID>
1070053

$$$$
