
  -ISIS-  08130814242D

 26 27  0  0  0  0  0  0  0  0999 V2000
    1.8375    2.4750    0.0000 S   0  0  3  0  0  0  0  0  0  0  0  0
    2.4875    2.1000    0.0000 C   0  0  0  0  0  0  0  0  0  0  0  0
    2.0292    3.1958    0.0000 N   0  0  0  0  0  0  0  0  0  0  0  0
    2.4875    1.3500    0.0000 C   0  0  0  0  0  0  0  0  0  0  0  0
    3.1375    0.9750    0.0000 C   0  0  0  0  0  0  0  0  0  0  0  0
    1.1292    2.7333    0.0000 O   0  0  0  0  0  0  0  0  0  0  0  0
    1.5167    1.7958    0.0000 O   0  0  0  0  0  0  0  0  0  0  0  0
    5.7375    0.9750    0.0000 C   0  0  0  0  0  0  0  0  0  0  0  0
    3.7875    1.3500    0.0000 C   0  0  0  0  0  0  0  0  0  0  0  0
    6.3875    1.3500    0.0000 N   0  0  0  0  0  0  0  0  0  0  0  0
    4.4375    0.9750    0.0000 O   0  0  0  0  0  0  0  0  0  0  0  0
    8.3292    0.9750    0.0000 N   0  0  0  0  0  0  0  0  0  0  0  0
    3.1375    2.4750    0.0000 C   0  0  0  0  0  0  0  0  0  0  0  0
    5.7375    0.2250    0.0000 O   0  0  0  0  0  0  0  0  0  0  0  0
    3.7875    2.1000    0.0000 C   0  0  0  0  0  0  0  0  0  0  0  0
    5.0875    1.3500    0.0000 C   0  0  0  0  0  0  0  0  0  0  0  0
    7.6792    1.3500    0.0000 C   0  0  0  0  0  0  0  0  0  0  0  0
    3.1375    0.2250    0.0000 Cl  0  0  0  0  0  0  0  0  0  0  0  0
    7.0292    0.9750    0.0000 C   0  0  0  0  0  0  0  0  0  0  0  0
    1.5042    3.7333    0.0000 C   0  0  3  0  0  0  0  0  0  0  0  0
    8.9792    1.3500    0.0000 C   0  0  0  0  0  0  0  0  0  0  0  0
    7.6792    2.1000    0.0000 C   0  0  0  0  0  0  0  0  0  0  0  0
    1.6917    4.4500    0.0000 C   0  0  0  0  0  0  0  0  0  0  0  0
    0.7792    3.5333    0.0000 C   0  0  0  0  0  0  0  0  0  0  0  0
    8.9792    2.1000    0.0000 C   0  0  0  0  0  0  0  0  0  0  0  0
    8.3292    2.4750    0.0000 C   0  0  0  0  0  0  0  0  0  0  0  0
  2  1  1  0  0  0  0
  3  1  1  0  0  0  0
  4  2  2  0  0  0  0
  5  4  1  0  0  0  0
  6  1  2  0  0  0  0
  7  1  2  0  0  0  0
  8 16  1  0  0  0  0
  9 15  1  0  0  0  0
 10  8  1  0  0  0  0
 11  9  1  0  0  0  0
 12 17  2  0  0  0  0
 13  2  1  0  0  0  0
 14  8  2  0  0  0  0
 15 13  2  0  0  0  0
 16 11  1  0  0  0  0
 17 19  1  0  0  0  0
 18  5  1  0  0  0  0
 19 10  1  0  0  0  0
 20  3  1  0  0  0  0
 21 12  1  0  0  0  0
 22 17  1  0  0  0  0
 23 20  1  0  0  0  0
 24 20  1  0  0  0  0
 25 26  1  0  0  0  0
 26 22  2  0  0  0  0
  9  5  2  0  0  0  0
 21 25  2  0  0  0  0
M  END
> <#>
1545

> <PLATE>
LAT020

> <ROW>
A

> <COL>
5

> <COORD>
A05

> <LATID>
LAT020A05

> <Supplier>
Chembridge

> <Suplier_CAT#>
7942101

> <Name>
Novel

> <Concentration_(mM)>
2.5

> <IC50_(µM)>
>100

> <Yeast_Active?>
-

> <Pubchem_CID>
1243331

$$$$
