
  -ISIS-  08130814242D

  6  2  0  0  0  0  0  0  0  0999 V2000
    7.7688   -3.5549    0.0000 Sn  0  2  0  0  0  0  0  0  0  0  0  0
    6.9961   -3.1087    0.0000 Cl  0  5  0  0  0  0  0  0  0  0  0  0
    8.5416   -3.1087    0.0000 Cl  0  5  0  0  0  0  0  0  0  0  0  0
    6.2233   -3.5549    0.0000 H   0  0  0  0  0  0  0  0  0  0  0  0
    5.4505   -3.1087    0.0000 O   0  0  0  0  0  0  0  0  0  0  0  0
    4.6777   -3.5549    0.0000 H   0  0  0  0  0  0  0  0  0  0  0  0
  4  5  1  0  0  0  0
  5  6  1  0  0  0  0
M  CHG  3   1   2   2  -1   3  -1
M  END
> <#>
525

> <PLATE>
LAT007

> <ROW>
E

> <COL>
7

> <COORD>
E07

> <LATID>
LAT007E07

> <Supplier>
Sigma

> <Suplier_CAT#>
S-8134

> <Name>
Stannous Chloride Hydrate 

> <Concentration_(mM)>
25

> <IC50_(µM)>
730

> <Yeast_Active?>
-

> <Pubchem_CID>
61436

$$$$
