
  -ISIS-  08130814242D

 13 13  0  0  0  0  0  0  0  0999 V2000
   -3.0958    1.7125    0.0000 C   0  0  0  0  0  0  0  0  0  0  0  0
   -3.7500    0.5708    0.0000 C   0  0  0  0  0  0  0  0  0  0  0  0
   -3.0958    0.9500    0.0000 C   0  0  0  0  0  0  0  0  0  0  0  0
   -4.4125    0.9500    0.0000 C   0  0  0  0  0  0  0  0  0  0  0  0
   -3.7500    2.0958    0.0000 C   0  0  0  0  0  0  0  0  0  0  0  0
   -4.4125    1.7125    0.0000 C   0  0  0  0  0  0  0  0  0  0  0  0
   -2.4125    2.1125    0.0000 C   0  0  0  0  0  0  0  0  0  0  0  0
   -3.7500   -0.2042    0.0000 Br  0  0  0  0  0  0  0  0  0  0  0  0
   -2.4125    2.8708    0.0000 O   0  0  0  0  0  0  0  0  0  0  0  0
   -5.0958    0.5958    0.0000 O   0  0  0  0  0  0  0  0  0  0  0  0
   -2.4333    0.5500    0.0000 O   0  0  0  0  0  0  0  0  0  0  0  0
   -5.0958    2.0708    0.0000 Br  0  0  0  0  0  0  0  0  0  0  0  0
   -1.7500    1.7333    0.0000 C   0  0  0  0  0  0  0  0  0  0  0  0
  2  3  1  0  0  0  0
  3  1  2  0  0  0  0
  4  6  1  0  0  0  0
  5  1  1  0  0  0  0
  6  5  2  0  0  0  0
  7  1  1  0  0  0  0
  8  2  1  0  0  0  0
  9  7  2  0  0  0  0
 10  4  1  0  0  0  0
 11  3  1  0  0  0  0
 12  6  1  0  0  0  0
 13  7  1  0  0  0  0
  2  4  2  0  0  0  0
M  END
> <#>
1162

> <PLATE>
LAT015

> <ROW>
B

> <COL>
7

> <COORD>
B07

> <LATID>
LAT015B07

> <Supplier>
Chembridge

> <Suplier_CAT#>
5538858

> <Name>
Novel

> <Concentration_(mM)>
2.5

> <IC50_(µM)>
25

> <Yeast_Active?>
-

> <Pubchem_CID>
46176

$$$$
