
  -ISIS-  08130814242D

 33 35  0  0  0  0  0  0  0  0999 V2000
    3.0542   -8.1042    0.0000 N   0  0  0  0  0  0  0  0  0  0  0  0
    3.7750   -6.8667    0.0000 N   0  0  0  0  0  0  0  0  0  0  0  0
    4.4875   -8.1042    0.0000 C   0  0  0  0  0  0  0  0  0  0  0  0
    4.4875   -7.2792    0.0000 C   0  0  0  0  0  0  0  0  0  0  0  0
    3.7750   -8.5167    0.0000 C   0  0  0  0  0  0  0  0  0  0  0  0
    3.0542   -7.2792    0.0000 C   0  0  0  0  0  0  0  0  0  0  0  0
    5.2000   -8.5167    0.0000 N   0  0  0  0  0  0  0  0  0  0  0  0
    7.3417   -4.7917    0.0000 C   0  0  0  0  0  0  0  0  0  0  0  0
    5.2000   -6.8667    0.0000 N   0  0  0  0  0  0  0  0  0  0  0  0
    8.0542   -4.3792    0.0000 N   0  0  0  0  0  0  0  0  0  0  0  0
    5.9167   -8.1042    0.0000 C   0  0  0  0  0  0  0  0  0  0  0  0
    9.4792   -4.3792    0.0000 C   0  0  0  0  0  0  0  0  0  0  0  0
    7.3500   -8.1042    0.0000 N   0  0  3  0  0  0  0  0  0  0  0  0
    8.7667   -4.7917    0.0000 C   0  0  2  0  0  0  0  0  0  0  0  0
    7.3417   -5.6167    0.0000 C   0  0  0  0  0  0  0  0  0  0  0  0
    6.6375   -8.5167    0.0000 C   0  0  0  0  0  0  0  0  0  0  0  0
    9.4667   -6.8667    0.0000 C   0  0  0  0  0  0  0  0  0  0  0  0
    7.3417   -7.2750    0.0000 C   0  0  0  0  0  0  0  0  0  0  0  0
    6.6250   -4.3792    0.0000 O   0  0  0  0  0  0  0  0  0  0  0  0
    9.4792   -3.5542    0.0000 O   0  0  0  0  0  0  0  0  0  0  0  0
    5.9167   -7.2792    0.0000 C   0  0  0  0  0  0  0  0  0  0  0  0
    8.7500   -7.2667    0.0000 O   0  0  0  0  0  0  0  0  0  0  0  0
    3.7750   -9.3417    0.0000 N   0  0  0  0  0  0  0  0  0  0  0  0
    8.0542   -6.0292    0.0000 C   0  0  0  0  0  0  0  0  0  0  0  0
    6.6292   -6.0292    0.0000 C   0  0  0  0  0  0  0  0  0  0  0  0
    8.0542   -6.8625    0.0000 C   0  0  0  0  0  0  0  0  0  0  0  0
    6.6292   -6.8625    0.0000 C   0  0  0  0  0  0  0  0  0  0  0  0
    2.3375   -6.8625    0.0000 N   0  0  0  0  0  0  0  0  0  0  0  0
    8.7667   -5.6250    0.0000 C   0  0  0  0  0  0  0  0  0  0  0  0
    9.4792   -6.0417    0.0000 C   0  0  0  0  0  0  0  0  0  0  0  0
   10.2000   -4.7917    0.0000 O   0  0  0  0  0  0  0  0  0  0  0  0
   10.1792   -7.2875    0.0000 O   0  0  0  0  0  0  0  0  0  0  0  0
    8.0667   -8.5125    0.0000 C   0  0  0  0  0  0  0  0  0  0  0  0
  2  6  2  0  0  0  0
  3  5  1  0  0  0  0
  4  2  1  0  0  0  0
  5  1  2  0  0  0  0
  6  1  1  0  0  0  0
  7  3  2  0  0  0  0
  8 15  1  0  0  0  0
  9  4  2  0  0  0  0
 10  8  1  0  0  0  0
 11  7  1  0  0  0  0
 14 12  1  6  0  0  0
 13 16  1  0  0  0  0
 14 10  1  0  0  0  0
 15 25  2  0  0  0  0
 16 11  1  0  0  0  0
 17 30  1  0  0  0  0
 18 13  1  0  0  0  0
 19  8  2  0  0  0  0
 20 12  2  0  0  0  0
 21  9  1  0  0  0  0
 22 17  2  0  0  0  0
 23  5  1  0  0  0  0
 24 26  2  0  0  0  0
 25 27  1  0  0  0  0
 26 18  1  0  0  0  0
 27 18  2  0  0  0  0
 28  6  1  0  0  0  0
 29 14  1  0  0  0  0
 30 29  1  0  0  0  0
 31 12  1  0  0  0  0
 32 17  1  0  0  0  0
 33 13  1  0  0  0  0
  3  4  1  0  0  0  0
 11 21  2  0  0  0  0
 24 15  1  0  0  0  0
M  END
> <#>
66

> <PLATE>
LAT001

> <ROW>
B

> <COL>
10

> <COORD>
B10

> <LATID>
LAT001B10

> <Supplier>
Microsource

> <Suplier_CAT#>
01500398

> <Name>
Methotrexate

> <Concentration_(mM)>
2.5

> <IC50_(µM)>
0.045

> <Yeast_Active?>
-

> <Pubchem_CID>
4112

> <Description>
Antineoplastic, Antirheumatic, Folic Acid Antagonist

$$$$
