
  -ISIS-  08130814242D

 33 36  0  0  0  0  0  0  0  0999 V2000
   -3.7333    2.0333    0.0000 C   0  0  0  0  0  0  0  0  0  0  0  0
   -4.1708    1.4125    0.0000 N   0  0  3  0  0  0  0  0  0  0  0  0
   -4.1708    2.6500    0.0000 N   0  0  0  0  0  0  0  0  0  0  0  0
   -2.9708    2.0500    0.0000 C   0  0  0  0  0  0  0  0  0  0  0  0
   -2.5958    1.3958    0.0000 C   0  0  0  0  0  0  0  0  0  0  0  0
   -1.4333    0.7125    0.0000 C   0  0  0  0  0  0  0  0  0  0  0  0
   -2.5958    0.0500    0.0000 C   0  0  0  0  0  0  0  0  0  0  0  0
   -1.8333    0.0333    0.0000 C   0  0  0  0  0  0  0  0  0  0  0  0
   -4.9125    1.6500    0.0000 C   0  0  0  0  0  0  0  0  0  0  0  0
   -4.9125    2.4125    0.0000 C   0  0  0  0  0  0  0  0  0  0  0  0
   -1.8125    1.3708    0.0000 C   0  0  0  0  0  0  0  0  0  0  0  0
   -2.9708    0.7333    0.0000 C   0  0  0  0  0  0  0  0  0  0  0  0
   -4.8333    1.0458    0.0000 C   0  0  0  0  0  0  0  0  0  0  0  0
   -2.9958   -0.6292    0.0000 C   0  0  3  0  0  0  0  0  0  0  0  0
   -0.6500    0.7125    0.0000 C   0  0  3  0  0  0  0  0  0  0  0  0
   -2.6000    2.7208    0.0000 O   0  0  0  0  0  0  0  0  0  0  0  0
   -1.4500   -0.6500    0.0000 O   0  0  0  0  0  0  0  0  0  0  0  0
   -4.8333    0.2833    0.0000 C   0  0  0  0  0  0  0  0  0  0  0  0
   -5.5708    1.2708    0.0000 C   0  0  0  0  0  0  0  0  0  0  0  0
   -5.5708    2.7958    0.0000 C   0  0  0  0  0  0  0  0  0  0  0  0
   -0.6500   -0.0667    0.0000 C   0  0  0  0  0  0  0  0  0  0  0  0
   -3.3708   -1.3042    0.0000 C   0  0  0  0  0  0  0  0  0  0  0  0
   -3.6708   -0.2500    0.0000 C   0  0  0  0  0  0  0  0  0  0  0  0
   -2.3125   -1.0292    0.0000 C   0  0  0  0  0  0  0  0  0  0  0  0
    0.1042    0.7125    0.0000 C   0  0  0  0  0  0  0  0  0  0  0  0
   -0.6500    1.4958    0.0000 C   0  0  0  0  0  0  0  0  0  0  0  0
   -4.1833   -0.1042    0.0000 C   0  0  0  0  0  0  0  0  0  0  0  0
   -5.5000   -0.0875    0.0000 C   0  0  0  0  0  0  0  0  0  0  0  0
   -6.2292    1.6500    0.0000 C   0  0  0  0  0  0  0  0  0  0  0  0
   -6.2292    2.4125    0.0000 C   0  0  0  0  0  0  0  0  0  0  0  0
   -5.5208   -0.8542    0.0000 C   0  0  0  0  0  0  0  0  0  0  0  0
   -4.1833   -0.8792    0.0000 C   0  0  0  0  0  0  0  0  0  0  0  0
   -4.8625   -1.2542    0.0000 C   0  0  0  0  0  0  0  0  0  0  0  0
  2  1  1  0  0  0  0
  3  1  2  0  0  0  0
  4  1  1  0  0  0  0
  5  4  1  0  0  0  0
  6 11  2  0  0  0  0
  7 12  1  0  0  0  0
  8  7  2  0  0  0  0
  9  2  1  0  0  0  0
 10  3  1  0  0  0  0
 11  5  1  0  0  0  0
 12  5  2  0  0  0  0
 13  2  1  0  0  0  0
 14  7  1  0  0  0  0
 15  6  1  0  0  0  0
 16  4  2  0  0  0  0
 17  8  1  0  0  0  0
 18 13  1  0  0  0  0
 19  9  1  0  0  0  0
 20 10  1  0  0  0  0
 21 15  1  0  0  0  0
 22 14  1  0  0  0  0
 23 14  1  0  0  0  0
 24 14  1  0  0  0  0
 25 15  1  0  0  0  0
 26 15  1  0  0  0  0
 27 18  2  0  0  0  0
 28 18  1  0  0  0  0
 29 19  2  0  0  0  0
 30 20  2  0  0  0  0
 31 28  2  0  0  0  0
 32 27  1  0  0  0  0
 33 31  1  0  0  0  0
 10  9  2  0  0  0  0
 30 29  1  0  0  0  0
  6  8  1  0  0  0  0
 33 32  2  0  0  0  0
M  END
> <#>
1182

> <PLATE>
LAT015

> <ROW>
F

> <COL>
9

> <COORD>
F09

> <LATID>
LAT015F09

> <Supplier>
Chembridge

> <Suplier_CAT#>
5538336

> <Name>
Novel

> <Concentration_(mM)>
2.5

> <IC50_(µM)>
inactive

> <Yeast_Active?>
-

> <Pubchem_CID>
2850929

$$$$
