
  -ISIS-  08130814242D

 19 20  0  0  0  0  0  0  0  0999 V2000
   -0.3000    1.0333    0.0000 C   0  0  0  0  0  0  0  0  0  0  0  0
    0.4292   -0.2042    0.0000 N   0  0  3  0  0  0  0  0  0  0  0  0
    0.4292    0.6000    0.0000 C   0  0  0  0  0  0  0  0  0  0  0  0
   -1.0333   -0.2042    0.0000 N   0  0  0  0  0  0  0  0  0  0  0  0
   -1.0333    0.6000    0.0000 C   0  0  0  0  0  0  0  0  0  0  0  0
   -0.3000    1.8500    0.0000 C   0  0  0  0  0  0  0  0  0  0  0  0
    1.2542   -0.7375    0.0000 C   0  0  0  0  0  0  0  0  0  0  0  0
    1.2875    1.0500    0.0000 N   0  0  0  0  0  0  0  0  0  0  0  0
    0.5500    2.3458    0.0000 O   0  0  0  0  0  0  0  0  0  0  0  0
   -1.1333    2.3458    0.0000 O   0  0  0  0  0  0  0  0  0  0  0  0
   -1.8708    1.0458    0.0000 C   0  0  0  0  0  0  0  0  0  0  0  0
    2.1292   -0.2500    0.0000 C   0  0  3  0  0  0  0  0  0  0  0  0
   -1.9708    1.8625    0.0000 C   0  0  0  0  0  0  0  0  0  0  0  0
    2.9542   -0.7375    0.0000 C   0  0  0  0  0  0  0  0  0  0  0  0
    2.1292    0.7208    0.0000 C   0  0  0  0  0  0  0  0  0  0  0  0
   -2.7833    2.3500    0.0000 C   0  0  0  0  0  0  0  0  0  0  0  0
    3.8042   -0.2500    0.0000 C   0  0  0  0  0  0  0  0  0  0  0  0
    2.9542    1.2125    0.0000 C   0  0  0  0  0  0  0  0  0  0  0  0
    3.8042    0.7208    0.0000 C   0  0  0  0  0  0  0  0  0  0  0  0
  2  3  1  0  0  0  0
  3  1  2  0  0  0  0
  4  5  2  0  0  0  0
  5  1  1  0  0  0  0
  6  1  1  0  0  0  0
  7  2  1  0  0  0  0
  8  3  1  0  0  0  0
  9  6  2  0  0  0  0
 10  6  1  0  0  0  0
 11  5  1  0  0  0  0
 12  7  1  0  0  0  0
 13 10  1  0  0  0  0
 14 12  1  0  0  0  0
 15 12  1  0  0  0  0
 16 13  1  0  0  0  0
 17 14  1  0  0  0  0
 18 15  1  0  0  0  0
 19 18  1  0  0  0  0
  2  4  1  0  0  0  0
 19 17  1  0  0  0  0
M  END
> <#>
887

> <PLATE>
LAT012

> <ROW>
G

> <COL>
2

> <COORD>
G02

> <LATID>
LAT012G02

> <Supplier>
Chembridge

> <Suplier_CAT#>
5710301

> <Name>
Novel

> <Sec_Name>
226_B03

> <Concentration_(mM)>
2.5

> <IC50_(µM)>
>100

> <Yeast_Active?>
-

> <Pubchem_CID>
684547

$$$$
