
  -ISIS-  08130814242D

 30 33  0  0  0  0  0  0  0  0999 V2000
    3.0375   -3.6750    0.0000 N   0  0  3  0  0  0  0  0  0  0  0  0
    2.8667   -2.8667    0.0000 C   0  0  0  0  0  0  0  0  0  0  0  0
    3.5792   -2.4542    0.0000 N   0  0  0  0  0  0  0  0  0  0  0  0
    3.8542   -3.7625    0.0000 C   0  0  0  0  0  0  0  0  0  0  0  0
    4.1917   -3.0042    0.0000 N   0  0  0  0  0  0  0  0  0  0  0  0
    2.4875   -4.2917    0.0000 C   0  0  0  0  0  0  0  0  0  0  0  0
    4.2667   -4.4792    0.0000 S   0  0  0  0  0  0  0  0  0  0  0  0
    5.5042   -5.1792    0.0000 C   0  0  0  0  0  0  0  0  0  0  0  0
    2.1125   -2.5375    0.0000 C   0  0  0  0  0  0  0  0  0  0  0  0
    6.3292   -5.1792    0.0000 N   0  0  0  0  0  0  0  0  0  0  0  0
    5.1000   -5.8917    0.0000 O   0  0  0  0  0  0  0  0  0  0  0  0
    2.7417   -5.0667    0.0000 C   0  0  0  0  0  0  0  0  0  0  0  0
    1.6792   -4.1167    0.0000 C   0  0  0  0  0  0  0  0  0  0  0  0
    5.0917   -4.4792    0.0000 C   0  0  0  0  0  0  0  0  0  0  0  0
    1.3792   -5.5125    0.0000 C   0  0  0  0  0  0  0  0  0  0  0  0
    6.7417   -5.8792    0.0000 C   0  0  0  0  0  0  0  0  0  0  0  0
    1.1292   -4.7292    0.0000 C   0  0  0  0  0  0  0  0  0  0  0  0
    2.1917   -5.6792    0.0000 C   0  0  0  0  0  0  0  0  0  0  0  0
    0.8292   -6.1250    0.0000 F   0  0  0  0  0  0  0  0  0  0  0  0
    7.5542   -5.8792    0.0000 C   0  0  0  0  0  0  0  0  0  0  0  0
    1.4500   -3.0167    0.0000 C   0  0  0  0  0  0  0  0  0  0  0  0
    2.0292   -1.7167    0.0000 C   0  0  0  0  0  0  0  0  0  0  0  0
    7.9542   -6.5875    0.0000 C   0  0  0  0  0  0  0  0  0  0  0  0
    7.9542   -5.1875    0.0000 C   0  0  0  0  0  0  0  0  0  0  0  0
    1.2750   -1.3792    0.0000 C   0  0  0  0  0  0  0  0  0  0  0  0
    0.6917   -2.6875    0.0000 C   0  0  0  0  0  0  0  0  0  0  0  0
    8.7667   -5.1875    0.0000 C   0  0  0  0  0  0  0  0  0  0  0  0
    8.7667   -6.5917    0.0000 C   0  0  0  0  0  0  0  0  0  0  0  0
    0.6042   -1.8625    0.0000 C   0  0  0  0  0  0  0  0  0  0  0  0
    9.1667   -5.8875    0.0000 C   0  0  0  0  0  0  0  0  0  0  0  0
  2  1  1  0  0  0  0
  3  2  2  0  0  0  0
  4  1  1  0  0  0  0
  5  4  2  0  0  0  0
  6  1  1  0  0  0  0
  7  4  1  0  0  0  0
  8 14  1  0  0  0  0
  9  2  1  0  0  0  0
 10  8  1  0  0  0  0
 11  8  2  0  0  0  0
 12  6  1  0  0  0  0
 13  6  2  0  0  0  0
 14  7  1  0  0  0  0
 15 17  2  0  0  0  0
 16 10  1  0  0  0  0
 17 13  1  0  0  0  0
 18 12  2  0  0  0  0
 19 15  1  0  0  0  0
 20 16  1  0  0  0  0
 21  9  1  0  0  0  0
 22  9  2  0  0  0  0
 23 20  2  0  0  0  0
 24 20  1  0  0  0  0
 25 22  1  0  0  0  0
 26 21  2  0  0  0  0
 27 24  2  0  0  0  0
 28 23  1  0  0  0  0
 29 25  2  0  0  0  0
 30 27  1  0  0  0  0
  5  3  1  0  0  0  0
 18 15  1  0  0  0  0
 29 26  1  0  0  0  0
 30 28  2  0  0  0  0
M  END
> <#>
1730

> <PLATE>
LAT022

> <ROW>
B

> <COL>
8

> <COORD>
B08

> <LATID>
LAT022B08

> <Supplier>
Chembridge

> <Suplier_CAT#>
7574623

> <Name>
Nulroonazole

> <Concentration_(mM)>
2.5

> <IC50_(µM)>
inactive

> <Yeast_Active?>
-

> <Pubchem_CID>
1312545

$$$$
