
  -ISIS-  08130814242D

 16 17  0  0  0  0  0  0  0  0999 V2000
   -3.3458    1.3958    0.0000 C   0  0  0  0  0  0  0  0  0  0  0  0
   -3.3458    0.6000    0.0000 C   0  0  0  0  0  0  0  0  0  0  0  0
    1.0500    1.7208    0.0000 N   0  0  0  0  0  0  0  0  0  0  0  0
   -2.6500    1.7708    0.0000 C   0  0  0  0  0  0  0  0  0  0  0  0
   -1.2708    1.7958    0.0000 N   0  0  0  0  0  0  0  0  0  0  0  0
   -2.6500    0.2000    0.0000 C   0  0  0  0  0  0  0  0  0  0  0  0
   -1.9708    1.3958    0.0000 C   0  0  0  0  0  0  0  0  0  0  0  0
    0.3667    2.1208    0.0000 C   0  0  0  0  0  0  0  0  0  0  0  0
   -0.3000    1.7458    0.0000 C   0  0  0  0  0  0  0  0  0  0  0  0
   -4.0208    0.2208    0.0000 Br  0  0  0  0  0  0  0  0  0  0  0  0
   -1.9708    0.6000    0.0000 C   0  0  0  0  0  0  0  0  0  0  0  0
   -4.0208    1.7833    0.0000 C   0  0  0  0  0  0  0  0  0  0  0  0
    1.7292    2.1208    0.0000 C   0  0  0  0  0  0  0  0  0  0  0  0
    0.3667    2.9000    0.0000 C   0  0  0  0  0  0  0  0  0  0  0  0
    1.7292    2.9125    0.0000 C   0  0  0  0  0  0  0  0  0  0  0  0
    1.0500    3.3000    0.0000 C   0  0  0  0  0  0  0  0  0  0  0  0
  2  1  2  0  0  0  0
  3  8  1  0  0  0  0
  4  1  1  0  0  0  0
  5  7  1  0  0  0  0
  6  2  1  0  0  0  0
  7  4  2  0  0  0  0
  8  9  1  0  0  0  0
  9  5  1  0  0  0  0
 10  2  1  0  0  0  0
 11  7  1  0  0  0  0
 12  1  1  0  0  0  0
 13  3  2  0  0  0  0
 14  8  2  0  0  0  0
 15 16  2  0  0  0  0
 16 14  1  0  0  0  0
  6 11  2  0  0  0  0
 13 15  1  0  0  0  0
M  END
> <#>
715

> <PLATE>
LAT009

> <ROW>
C

> <COL>
11

> <COORD>
C11

> <LATID>
LAT009C11

> <Supplier>
Chembridge

> <Suplier_CAT#>
5560568

> <Name>
Novel

> <Sec_Name>
172_B05

> <Concentration_(mM)>
2.5

> <IC50_(µM)>
65

> <Yeast_Active?>
-

> <Pubchem_CID>
872016

$$$$
