
  -ISIS-  08130814242D

 32 35  0  0  0  0  0  0  0  0999 V2000
   -4.8833   -2.1542    0.0000 N   0  0  3  0  0  0  0  0  0  0  0  0
   -6.9667   -3.7167    0.0000 C   0  0  0  0  0  0  0  0  0  0  0  0
   -6.1500   -6.1875    0.0000 N   0  0  0  0  0  0  0  0  0  0  0  0
   -2.7958   -3.7167    0.0000 C   0  0  0  0  0  0  0  0  0  0  0  0
   -3.6125   -6.1875    0.0000 N   0  0  0  0  0  0  0  0  0  0  0  0
   -9.3542   -2.7167    0.0000 C   0  0  0  0  0  0  0  0  0  0  0  0
   -0.2625   -3.0500    0.0000 S   0  0  0  0  0  0  0  0  0  0  0  0
    6.0000   -5.9542    0.0000 N   0  0  0  0  0  0  0  0  0  0  0  0
    4.1375   -4.1667    0.0000 C   0  0  0  0  0  0  0  0  0  0  0  0
   -5.1833    0.4125    0.0000 C   0  0  0  0  0  0  0  0  0  0  0  0
    8.4542   -5.2875    0.0000 C   0  0  3  0  0  0  0  0  0  0  0  0
  -11.4417   -4.1667    0.0000 C   0  0  0  0  0  0  0  0  0  0  0  0
    4.7292   -1.7042    0.0000 O   0  0  0  0  0  0  0  0  0  0  0  0
    1.6000   -4.8375    0.0000 C   0  0  0  0  0  0  0  0  0  0  0  0
   10.3292   -7.0792    0.0000 C   0  0  0  0  0  0  0  0  0  0  0  0
  -13.8292   -3.1667    0.0000 C   0  0  0  0  0  0  0  0  0  0  0  0
   -9.6500   -0.0292    0.0000 C   0  0  0  0  0  0  0  0  0  0  0  0
  -16.0000   -4.7292    0.0000 O   0  0  0  0  0  0  0  0  0  0  0  0
  -12.0375    0.9625    0.0000 C   0  0  0  0  0  0  0  0  0  0  0  0
   -7.5667    1.4125    0.0000 C   0  0  0  0  0  0  0  0  0  0  0  0
   -3.0958    1.8625    0.0000 C   0  0  0  0  0  0  0  0  0  0  0  0
    9.0542   -2.7167    0.0000 C   0  0  0  0  0  0  0  0  0  0  0  0
    9.6500   -9.5375    0.0000 C   0  0  0  0  0  0  0  0  0  0  0  0
   12.7875   -6.3000    0.0000 C   0  0  0  0  0  0  0  0  0  0  0  0
  -14.1292   -0.5875    0.0000 C   0  0  0  0  0  0  0  0  0  0  0  0
  -15.6167   -7.4167    0.0000 C   0  0  0  0  0  0  0  0  0  0  0  0
   -3.3958    4.5417    0.0000 C   0  0  0  0  0  0  0  0  0  0  0  0
   11.5167  -11.3292    0.0000 C   0  0  0  0  0  0  0  0  0  0  0  0
   14.5792   -8.2000    0.0000 C   0  0  0  0  0  0  0  0  0  0  0  0
   -7.8542    3.9958    0.0000 C   0  0  0  0  0  0  0  0  0  0  0  0
   -5.7833    5.5417    0.0000 C   0  0  0  0  0  0  0  0  0  0  0  0
   13.9042  -10.6542    0.0000 C   0  0  0  0  0  0  0  0  0  0  0  0
  2  1  1  0  0  0  0
  3  2  2  0  0  0  0
  4  1  1  0  0  0  0
  5  4  2  0  0  0  0
  6  2  1  0  0  0  0
  7  4  1  0  0  0  0
  8  9  1  0  0  0  0
  9 14  1  0  0  0  0
 10  1  1  0  0  0  0
 11  8  1  0  0  0  0
 12  6  1  0  0  0  0
 13  9  2  0  0  0  0
 14  7  1  0  0  0  0
 15 11  1  0  0  0  0
 16 12  2  0  0  0  0
 17  6  2  0  0  0  0
 18 16  1  0  0  0  0
 19 17  1  0  0  0  0
 20 10  1  0  0  0  0
 21 10  2  0  0  0  0
 22 11  1  0  0  0  0
 23 15  2  0  0  0  0
 24 15  1  0  0  0  0
 25 19  2  0  0  0  0
 26 18  1  0  0  0  0
 27 21  1  0  0  0  0
 28 23  1  0  0  0  0
 29 24  2  0  0  0  0
 30 20  2  0  0  0  0
 31 27  2  0  0  0  0
 32 29  1  0  0  0  0
  3  5  1  0  0  0  0
 30 31  1  0  0  0  0
 16 25  1  0  0  0  0
 28 32  2  0  0  0  0
M  END
> <#>
1721

> <PLATE>
LAT022

> <ROW>
A

> <COL>
7

> <COORD>
A07

> <LATID>
LAT022A07

> <Supplier>
Chembridge

> <Suplier_CAT#>
6986131

> <Name>
Novel

> <Concentration_(mM)>
2.5

> <IC50_(µM)>
92

> <Yeast_Active?>
-

> <Pubchem_CID>
1035817

$$$$
