
  -ISIS-  08130814242D

 17 16  0  0  0  0  0  0  0  0999 V2000
    4.2667    2.2708    0.0000 N   0  0  0  0  0  0  0  0  0  0  0  0
    6.2125    2.6458    0.0000 N   0  0  0  0  0  0  0  0  0  0  0  0
    6.8625    2.2708    0.0000 C   0  0  3  0  0  0  0  0  0  0  0  0
    8.1167    2.6000    0.0000 C   0  0  3  0  0  0  0  0  0  0  0  0
    7.3917    2.7958    0.0000 C   0  0  0  0  0  0  0  0  0  0  0  0
    4.9167    2.6458    0.0000 C   0  0  0  0  0  0  0  0  0  0  0  0
    5.5625    2.2708    0.0000 C   0  0  0  0  0  0  0  0  0  0  0  0
    3.6167    2.6458    0.0000 C   0  0  0  0  0  0  0  0  0  0  0  0
    7.4375    1.7833    0.0000 C   0  0  0  0  0  0  0  0  0  0  0  0
    6.4292    1.6500    0.0000 C   0  0  0  0  0  0  0  0  0  0  0  0
    8.4917    3.2500    0.0000 C   0  0  0  0  0  0  0  0  0  0  0  0
    7.8625    1.8958    0.0000 C   0  0  0  0  0  0  0  0  0  0  0  0
    8.8000    2.2833    0.0000 C   0  0  0  0  0  0  0  0  0  0  0  0
    4.9167    3.3958    0.0000 C   0  0  0  0  0  0  0  0  0  0  0  0
    3.6167    3.3958    0.0000 C   0  0  0  0  0  0  0  0  0  0  0  0
    4.2667    3.7708    0.0000 C   0  0  0  0  0  0  0  0  0  0  0  0
    9.5500    1.6500    0.0000 Cl  0  0  0  0  0  0  0  0  0  0  0  0
  2  7  1  0  0  0  0
  3  2  1  0  0  0  0
  4  5  1  0  0  0  0
  5  3  1  0  0  0  0
  6  1  2  0  0  0  0
  7  6  1  0  0  0  0
  8  1  1  0  0  0  0
  9  3  1  0  0  0  0
 10  3  1  0  0  0  0
 11  4  1  0  0  0  0
 12  4  1  0  0  0  0
 13  4  1  0  0  0  0
 14  6  1  0  0  0  0
 15  8  2  0  0  0  0
 16 15  1  0  0  0  0
 16 14  2  0  0  0  0
M  END
> <#>
1566

> <PLATE>
LAT020

> <ROW>
F

> <COL>
7

> <COORD>
F07

> <LATID>
LAT020F07

> <Supplier>
Chembridge

> <Suplier_CAT#>
9036716

> <Name>
Novel

> <Concentration_(mM)>
2.5

> <IC50_(µM)>
inactive

> <Yeast_Active?>
-

> <Pubchem_CID>
4723824

$$$$
