
  -ISIS-  08130814242D

 20 22  0  0  0  0  0  0  0  0999 V2000
    2.8417   -6.0042    0.0000 C   0  0  0  0  0  0  0  0  0  0  0  0
    4.2167   -5.5000    0.0000 O   0  0  0  0  0  0  0  0  0  0  0  0
    4.2417   -4.0417    0.0000 C   0  0  3  0  0  0  0  0  0  0  0  0
    1.9417   -4.7625    0.0000 C   0  0  0  0  0  0  0  0  0  0  0  0
    2.8042   -3.5375    0.0000 C   0  0  0  0  0  0  0  0  0  0  0  0
    5.3917   -3.0292    0.0000 C   0  0  0  0  0  0  0  0  0  0  0  0
    6.9167   -3.4542    0.0000 C   0  0  0  0  0  0  0  0  0  0  0  0
    8.0375   -2.5042    0.0000 C   0  0  0  0  0  0  0  0  0  0  0  0
    2.3167   -7.5417    0.0000 O   0  0  0  0  0  0  0  0  0  0  0  0
    7.7292   -1.0250    0.0000 C   0  0  0  0  0  0  0  0  0  0  0  0
    7.1875   -5.0250    0.0000 O   0  0  0  0  0  0  0  0  0  0  0  0
    8.9667   -0.0042    0.0000 C   0  0  0  0  0  0  0  0  0  0  0  0
    8.7000    1.2583    0.0000 O   0  0  0  0  0  0  0  0  0  0  0  0
    0.3792   -4.6167    0.0000 C   0  0  0  0  0  0  0  0  0  0  0  0
    2.1750   -2.1292    0.0000 C   0  0  0  0  0  0  0  0  0  0  0  0
    9.5417   -3.0417    0.0000 C   0  0  0  0  0  0  0  0  0  0  0  0
   10.7250   -2.0250    0.0000 C   0  0  0  0  0  0  0  0  0  0  0  0
   10.3292   -0.4875    0.0000 C   0  0  0  0  0  0  0  0  0  0  0  0
    0.6417   -1.9792    0.0000 C   0  0  0  0  0  0  0  0  0  0  0  0
   -0.2458   -3.1917    0.0000 C   0  0  0  0  0  0  0  0  0  0  0  0
  2  1  1  0  0  0  0
  3  2  1  0  0  0  0
  4  1  1  0  0  0  0
  5  4  2  0  0  0  0
  6  3  1  0  0  0  0
  7  6  1  0  0  0  0
  8  7  1  0  0  0  0
  9  1  2  0  0  0  0
 10  8  2  0  0  0  0
 11  7  2  0  0  0  0
 12 10  1  0  0  0  0
 13 12  1  0  0  0  0
 14  4  1  0  0  0  0
 15  5  1  0  0  0  0
 16  8  1  0  0  0  0
 17 16  2  0  0  0  0
 18 17  1  0  0  0  0
 19 20  1  0  0  0  0
 20 14  2  0  0  0  0
  3  5  1  0  0  0  0
 19 15  2  0  0  0  0
 18 12  2  0  0  0  0
M  END
> <#>
1342

> <PLATE>
LAT017

> <ROW>
F

> <COL>
9

> <COORD>
F09

> <LATID>
LAT017F09

> <Supplier>
Chembridge

> <Suplier_CAT#>
7393463

> <Name>
Novel

> <Concentration_(mM)>
2.5

> <IC50_(µM)>
>100

> <Yeast_Active?>
-

> <Pubchem_CID>
889621

$$$$
