
  -ISIS-  08130814242D

 23 25  0  0  0  0  0  0  0  0999 V2000
    5.2167   -0.0500    0.0000 N   0  0  0  0  0  0  0  0  0  0  0  0
    4.5667   -1.1792    0.0000 C   0  0  0  0  0  0  0  0  0  0  0  0
    4.5667   -0.4292    0.0000 C   0  0  0  0  0  0  0  0  0  0  0  0
    1.9667   -1.1667    0.0000 C   0  0  0  0  0  0  0  0  0  0  0  0
    5.2167   -1.5500    0.0000 C   0  0  0  0  0  0  0  0  0  0  0  0
    5.8667   -0.4292    0.0000 C   0  0  0  0  0  0  0  0  0  0  0  0
    1.3167   -1.5500    0.0000 C   0  0  0  0  0  0  0  0  0  0  0  0
    3.2667   -1.1792    0.0000 N   0  0  0  0  0  0  0  0  0  0  0  0
    5.8667   -1.1792    0.0000 C   0  0  0  0  0  0  0  0  0  0  0  0
    3.9167   -1.5500    0.0000 C   0  0  0  0  0  0  0  0  0  0  0  0
    2.6167   -1.5500    0.0000 N   0  0  0  0  0  0  0  0  0  0  0  0
    0.6667   -1.1667    0.0000 C   0  0  0  0  0  0  0  0  0  0  0  0
    1.9667   -0.4167    0.0000 O   0  0  0  0  0  0  0  0  0  0  0  0
    3.9167   -0.0500    0.0000 Cl  0  0  0  0  0  0  0  0  0  0  0  0
    0.0167   -1.5500    0.0000 C   0  0  0  0  0  0  0  0  0  0  0  0
   -0.6208   -1.1792    0.0000 F   0  0  0  0  0  0  0  0  0  0  0  0
    1.3167   -2.3000    0.0000 C   0  0  0  0  0  0  0  0  0  0  0  0
    0.6667   -2.6792    0.0000 C   0  0  0  0  0  0  0  0  0  0  0  0
    6.5167   -0.0500    0.0000 C   0  0  0  0  0  0  0  0  0  0  0  0
    6.5167   -1.5500    0.0000 C   0  0  0  0  0  0  0  0  0  0  0  0
    0.0167   -2.3000    0.0000 C   0  0  0  0  0  0  0  0  0  0  0  0
    7.1667   -0.4292    0.0000 C   0  0  0  0  0  0  0  0  0  0  0  0
    7.1667   -1.1792    0.0000 C   0  0  0  0  0  0  0  0  0  0  0  0
  2  3  1  0  0  0  0
  3  1  2  0  0  0  0
  4 11  1  0  0  0  0
  5  9  1  0  0  0  0
  6  1  1  0  0  0  0
  7  4  1  0  0  0  0
  8 10  2  0  0  0  0
  9  6  2  0  0  0  0
 10  2  1  0  0  0  0
 11  8  1  0  0  0  0
 12  7  1  0  0  0  0
 13  4  2  0  0  0  0
 14  3  1  0  0  0  0
 15 12  2  0  0  0  0
 16 15  1  0  0  0  0
 17  7  2  0  0  0  0
 18 17  1  0  0  0  0
 19  6  1  0  0  0  0
 20  9  1  0  0  0  0
 21 18  2  0  0  0  0
 22 19  2  0  0  0  0
 23 22  1  0  0  0  0
  5  2  2  0  0  0  0
 23 20  2  0  0  0  0
 21 15  1  0  0  0  0
M  END
> <#>
1602

> <PLATE>
LAT021

> <ROW>
B

> <COL>
2

> <COORD>
B02

> <LATID>
LAT021B02

> <Supplier>
Chembridge

> <Suplier_CAT#>
5326592

> <Name>
Novel

> <Concentration_(mM)>
2.5

> <IC50_(µM)>
88

> <Yeast_Active?>
-

> <Pubchem_CID>
795243

$$$$
