
  -ISIS-  08130814242D

 30 33  0  0  0  0  0  0  0  0999 V2000
    2.9542   -3.7792    0.0000 C   0  0  0  0  0  0  0  0  0  0  0  0
    1.7167   -3.7792    0.0000 C   0  0  0  0  0  0  0  0  0  0  0  0
    2.9542   -4.5000    0.0000 C   0  0  0  0  0  0  0  0  0  0  0  0
    2.3375   -3.4375    0.0000 C   0  0  3  0  0  0  0  0  0  0  0  0
    1.7167   -4.5000    0.0000 C   0  0  0  0  0  0  0  0  0  0  0  0
    2.3375   -4.8375    0.0000 N   0  0  0  0  0  0  0  0  0  0  0  0
    3.5792   -3.4167    0.0000 C   0  0  0  0  0  0  0  0  0  0  0  0
    1.1167   -3.4375    0.0000 C   0  0  0  0  0  0  0  0  0  0  0  0
    2.3375   -2.2000    0.0000 C   0  0  0  0  0  0  0  0  0  0  0  0
    4.2000   -3.7792    0.0000 O   0  0  0  0  0  0  0  0  0  0  0  0
    3.5792   -2.7167    0.0000 O   0  0  0  0  0  0  0  0  0  0  0  0
    1.1167   -2.7167    0.0000 O   0  0  0  0  0  0  0  0  0  0  0  0
    2.9500   -1.8292    0.0000 C   0  0  0  0  0  0  0  0  0  0  0  0
    1.7000   -1.8292    0.0000 C   0  0  0  0  0  0  0  0  0  0  0  0
    1.1167   -4.8375    0.0000 C   0  0  0  0  0  0  0  0  0  0  0  0
    4.8500   -3.4042    0.0000 C   0  0  0  0  0  0  0  0  0  0  0  0
    3.5792   -4.8542    0.0000 C   0  0  0  0  0  0  0  0  0  0  0  0
    2.3375   -0.7542    0.0000 C   0  0  0  0  0  0  0  0  0  0  0  0
    2.9500   -1.1292    0.0000 C   0  0  0  0  0  0  0  0  0  0  0  0
    1.7000   -1.1292    0.0000 C   0  0  0  0  0  0  0  0  0  0  0  0
    5.5000   -3.7875    0.0000 C   0  0  0  0  0  0  0  0  0  0  0  0
    2.3500   -0.0042    0.0000 O   0  0  0  0  0  0  0  0  0  0  0  0
    0.5000   -3.7792    0.0000 C   0  0  0  0  0  0  0  0  0  0  0  0
    0.5000   -4.5000    0.0000 C   0  0  0  0  0  0  0  0  0  0  0  0
    6.1500   -3.4042    0.0000 C   0  0  0  0  0  0  0  0  0  0  0  0
    5.4875   -4.5375    0.0000 C   0  0  0  0  0  0  0  0  0  0  0  0
    3.0000    0.3500    0.0000 C   0  0  0  0  0  0  0  0  0  0  0  0
    6.8000   -3.7875    0.0000 C   0  0  0  0  0  0  0  0  0  0  0  0
    6.1375   -4.9042    0.0000 C   0  0  0  0  0  0  0  0  0  0  0  0
    6.7875   -4.5375    0.0000 C   0  0  0  0  0  0  0  0  0  0  0  0
  2  4  1  0  0  0  0
  3  1  2  0  0  0  0
  4  1  1  0  0  0  0
  5  2  2  0  0  0  0
  6  3  1  0  0  0  0
  7  1  1  0  0  0  0
  8  2  1  0  0  0  0
  9  4  1  0  0  0  0
 10  7  1  0  0  0  0
 11  7  2  0  0  0  0
 12  8  2  0  0  0  0
 13  9  2  0  0  0  0
 14  9  1  0  0  0  0
 15  5  1  0  0  0  0
 16 10  1  0  0  0  0
 17  3  1  0  0  0  0
 18 20  1  0  0  0  0
 19 13  1  0  0  0  0
 20 14  2  0  0  0  0
 21 16  1  0  0  0  0
 22 18  1  0  0  0  0
 23  8  1  0  0  0  0
 24 23  1  0  0  0  0
 25 21  2  0  0  0  0
 26 21  1  0  0  0  0
 27 22  1  0  0  0  0
 28 25  1  0  0  0  0
 29 26  2  0  0  0  0
 30 29  1  0  0  0  0
  5  6  1  0  0  0  0
 19 18  2  0  0  0  0
 15 24  1  0  0  0  0
 28 30  2  0  0  0  0
M  END
> <#>
759

> <PLATE>
LAT010

> <ROW>
G

> <COL>
6

> <COORD>
G06

> <LATID>
LAT010G06

> <Supplier>
Chembridge

> <Suplier_CAT#>
5606979

> <Name>
Novel

> <Sec_Name>
183_B07

> <Concentration_(mM)>
2.5

> <IC50_(µM)>
62

> <Yeast_Active?>
-

> <Pubchem_CID>
1238417

$$$$
