
  -ISIS-  08130814242D

 24 26  0  0  0  0  0  0  0  0999 V2000
    3.2292   -2.5500    0.0000 C   0  0  0  0  0  0  0  0  0  0  0  0
    3.2292   -1.8000    0.0000 C   0  0  0  0  0  0  0  0  0  0  0  0
    2.5792   -2.9292    0.0000 C   0  0  0  0  0  0  0  0  0  0  0  0
    2.5792   -1.4292    0.0000 C   0  0  0  0  0  0  0  0  0  0  0  0
    1.9292   -1.8000    0.0000 C   0  0  0  0  0  0  0  0  0  0  0  0
    1.9292   -2.5500    0.0000 C   0  0  0  0  0  0  0  0  0  0  0  0
    3.8792   -2.9292    0.0000 C   0  0  0  0  0  0  0  0  0  0  0  0
    3.8792   -1.4292    0.0000 C   0  0  0  0  0  0  0  0  0  0  0  0
    5.1667   -5.1792    0.0000 C   0  0  0  0  0  0  0  0  0  0  0  0
    2.5792   -3.6792    0.0000 O   0  0  0  0  0  0  0  0  0  0  0  0
    2.5792   -0.6792    0.0000 O   0  0  0  0  0  0  0  0  0  0  0  0
    4.5167   -4.8042    0.0000 C   0  0  0  0  0  0  0  0  0  0  0  0
    5.8042   -4.8042    0.0000 O   0  0  0  0  0  0  0  0  0  0  0  0
    4.5292   -2.5500    0.0000 C   0  0  0  0  0  0  0  0  0  0  0  0
    4.5292   -1.8000    0.0000 C   0  0  0  0  0  0  0  0  0  0  0  0
    3.8792   -3.6792    0.0000 N   0  0  0  0  0  0  0  0  0  0  0  0
    4.5167   -4.0542    0.0000 C   0  0  0  0  0  0  0  0  0  0  0  0
    5.1667   -5.9292    0.0000 O   0  0  0  0  0  0  0  0  0  0  0  0
    3.8792   -0.6792    0.0000 O   0  0  0  0  0  0  0  0  0  0  0  0
    1.2875   -1.4292    0.0000 C   0  0  0  0  0  0  0  0  0  0  0  0
    1.2875   -2.9292    0.0000 C   0  0  0  0  0  0  0  0  0  0  0  0
    5.8167   -6.3042    0.0000 C   0  0  0  0  0  0  0  0  0  0  0  0
    0.6375   -1.8000    0.0000 C   0  0  0  0  0  0  0  0  0  0  0  0
    0.6375   -2.5500    0.0000 C   0  0  0  0  0  0  0  0  0  0  0  0
  2  1  2  0  0  0  0
  3  1  1  0  0  0  0
  4  2  1  0  0  0  0
  5  6  2  0  0  0  0
  6  3  1  0  0  0  0
  7  1  1  0  0  0  0
  8  2  1  0  0  0  0
  9 12  1  0  0  0  0
 10  3  2  0  0  0  0
 11  4  2  0  0  0  0
 12 17  1  0  0  0  0
 13  9  2  0  0  0  0
 14  7  2  0  0  0  0
 15 14  1  0  0  0  0
 16  7  1  0  0  0  0
 17 16  1  0  0  0  0
 18  9  1  0  0  0  0
 19  8  1  0  0  0  0
 20  5  1  0  0  0  0
 21  6  1  0  0  0  0
 22 18  1  0  0  0  0
 23 24  1  0  0  0  0
 24 21  2  0  0  0  0
 15  8  2  0  0  0  0
  4  5  1  0  0  0  0
 23 20  2  0  0  0  0
M  END
> <#>
1131

> <PLATE>
LAT015

> <ROW>
C

> <COL>
3

> <COORD>
C03

> <LATID>
LAT015C03

> <Supplier>
Chembridge

> <Suplier_CAT#>
5228205

> <Name>
Novel

> <Concentration_(mM)>
2.5

> <IC50_(µM)>
>100

> <Yeast_Active?>
-

> <Pubchem_CID>
NULL

$$$$
