
  -ISIS-  08130814242D

 25 27  0  0  0  0  0  0  0  0999 V2000
   -0.7333   -0.6000    0.0000 N   0  0  3  0  0  0  0  0  0  0  0  0
   -1.0500   -1.4167    0.0000 C   0  0  0  0  0  0  0  0  0  0  0  0
    0.4000   -1.4542    0.0000 C   0  0  0  0  0  0  0  0  0  0  0  0
    0.1500   -0.6000    0.0000 C   0  0  0  0  0  0  0  0  0  0  0  0
   -0.3333   -1.9792    0.0000 S   0  0  0  0  0  0  0  0  0  0  0  0
   -1.2208    0.1333    0.0000 C   0  0  0  0  0  0  0  0  0  0  0  0
    1.2500   -1.7542    0.0000 C   0  0  0  0  0  0  0  0  0  0  0  0
   -2.1125    0.0500    0.0000 N   0  0  0  0  0  0  0  0  0  0  0  0
   -1.9125   -1.6500    0.0000 S   0  0  0  0  0  0  0  0  0  0  0  0
    1.9167   -1.1792    0.0000 C   0  0  0  0  0  0  0  0  0  0  0  0
    0.6500    0.1458    0.0000 O   0  0  0  0  0  0  0  0  0  0  0  0
   -2.6333    0.7833    0.0000 C   0  0  0  0  0  0  0  0  0  0  0  0
    2.7667   -1.4792    0.0000 C   0  0  0  0  0  0  0  0  0  0  0  0
   -2.2625    1.6000    0.0000 C   0  0  0  0  0  0  0  0  0  0  0  0
   -1.3708    1.6833    0.0000 Cl  0  0  0  0  0  0  0  0  0  0  0  0
    2.9292   -2.3542    0.0000 O   0  0  0  0  0  0  0  0  0  0  0  0
    1.7667   -0.3000    0.0000 C   0  0  0  0  0  0  0  0  0  0  0  0
   -3.5333    0.7000    0.0000 C   0  0  0  0  0  0  0  0  0  0  0  0
    3.4542   -0.9000    0.0000 C   0  0  0  0  0  0  0  0  0  0  0  0
   -2.7708    2.3458    0.0000 C   0  0  0  0  0  0  0  0  0  0  0  0
    3.7667   -2.6542    0.0000 C   0  0  0  0  0  0  0  0  0  0  0  0
    2.4375    0.2708    0.0000 C   0  0  0  0  0  0  0  0  0  0  0  0
   -4.0500    1.4208    0.0000 C   0  0  0  0  0  0  0  0  0  0  0  0
    3.3000   -0.0292    0.0000 C   0  0  0  0  0  0  0  0  0  0  0  0
   -3.6708    2.2500    0.0000 C   0  0  0  0  0  0  0  0  0  0  0  0
  2  1  1  0  0  0  0
  3  4  1  0  0  0  0
  4  1  1  0  0  0  0
  5  2  1  0  0  0  0
  6  1  1  0  0  0  0
  7  3  2  0  0  0  0
  8  6  1  0  0  0  0
  9  2  2  0  0  0  0
 10  7  1  0  0  0  0
 11  4  2  0  0  0  0
 12  8  1  0  0  0  0
 13 10  2  0  0  0  0
 14 12  2  0  0  0  0
 15 14  1  0  0  0  0
 16 13  1  0  0  0  0
 17 10  1  0  0  0  0
 18 12  1  0  0  0  0
 19 13  1  0  0  0  0
 20 14  1  0  0  0  0
 21 16  1  0  0  0  0
 22 17  2  0  0  0  0
 23 18  2  0  0  0  0
 24 22  1  0  0  0  0
 25 23  1  0  0  0  0
  3  5  1  0  0  0  0
 20 25  2  0  0  0  0
 19 24  2  0  0  0  0
M  END
> <#>
1824

> <PLATE>
LAT023

> <ROW>
H

> <COL>
9

> <COORD>
H09

> <LATID>
LAT023H09

> <Supplier>
Chembridge

> <Suplier_CAT#>
5654096

> <Name>
Novel

> <Sec_Name>
202_C08

> <Concentration_(mM)>
2.5

> <IC50_(µM)>
28

> <Yeast_Active?>
+

> <Pubchem_CID>
1354611

$$$$
