
  -ISIS-  08130814242D

 19 20  0  0  0  0  0  0  0  0999 V2000
    3.3292   -1.4375    0.0000 C   0  0  0  0  0  0  0  0  0  0  0  0
    5.9292   -1.4500    0.0000 C   0  0  0  0  0  0  0  0  0  0  0  0
    4.6292   -1.4375    0.0000 N   0  0  0  0  0  0  0  0  0  0  0  0
    6.6042   -1.7500    0.0000 S   0  0  0  0  0  0  0  0  0  0  0  0
    5.2792   -1.8167    0.0000 C   0  0  0  0  0  0  0  0  0  0  0  0
    3.9792   -1.8167    0.0000 N   0  0  0  0  0  0  0  0  0  0  0  0
    7.1167   -1.1875    0.0000 C   0  0  0  0  0  0  0  0  0  0  0  0
    6.0042   -0.7000    0.0000 C   0  0  0  0  0  0  0  0  0  0  0  0
    3.3292   -0.6875    0.0000 O   0  0  0  0  0  0  0  0  0  0  0  0
    6.7375   -0.5375    0.0000 C   0  0  0  0  0  0  0  0  0  0  0  0
    2.6792   -1.8167    0.0000 C   0  0  0  0  0  0  0  0  0  0  0  0
    2.0292   -1.4375    0.0000 O   0  0  0  0  0  0  0  0  0  0  0  0
    1.3792   -1.8167    0.0000 C   0  0  0  0  0  0  0  0  0  0  0  0
    0.7292   -1.4375    0.0000 C   0  0  0  0  0  0  0  0  0  0  0  0
    0.0792   -1.8167    0.0000 C   0  0  0  0  0  0  0  0  0  0  0  0
    0.7292   -2.9500    0.0000 C   0  0  0  0  0  0  0  0  0  0  0  0
    1.3792   -2.5667    0.0000 C   0  0  0  0  0  0  0  0  0  0  0  0
    0.0792   -2.5667    0.0000 C   0  0  0  0  0  0  0  0  0  0  0  0
   -0.5625   -1.4375    0.0000 C   0  0  0  0  0  0  0  0  0  0  0  0
  2  5  1  0  0  0  0
  3  6  1  0  0  0  0
  4  2  1  0  0  0  0
  5  3  2  0  0  0  0
  6  1  1  0  0  0  0
  7  4  1  0  0  0  0
  8  2  2  0  0  0  0
  9  1  2  0  0  0  0
 10  8  1  0  0  0  0
 11  1  1  0  0  0  0
 12 11  1  0  0  0  0
 13 12  1  0  0  0  0
 14 13  1  0  0  0  0
 15 14  2  0  0  0  0
 16 17  1  0  0  0  0
 17 13  2  0  0  0  0
 18 16  2  0  0  0  0
 19 15  1  0  0  0  0
 18 15  1  0  0  0  0
 10  7  2  0  0  0  0
M  END
> <#>
595

> <PLATE>
LAT008

> <ROW>
C

> <COL>
6

> <COORD>
C06

> <LATID>
LAT008C06

> <Supplier>
Chembridge

> <Suplier_CAT#>
5479544

> <Name>
Novel

> <Sec_Name>
140_E02

> <Concentration_(mM)>
2.5

> <IC50_(µM)>
inactive

> <Yeast_Active?>
-

> <Pubchem_CID>
868520

$$$$
