
  -ISIS-  08130814242D

 21 22  0  0  0  0  0  0  0  0999 V2000
   11.8917    1.4000    0.0000 N   0  3  0  0  0  0  0  0  0  0  0  0
    5.8292    3.5000    0.0000 C   0  0  0  0  0  0  0  0  0  0  0  0
    3.6375    3.7833    0.0000 C   0  0  0  0  0  0  0  0  0  0  0  0
    4.8500    4.4667    0.0000 C   0  0  0  0  0  0  0  0  0  0  0  0
   10.6792    2.1000    0.0000 C   0  0  0  0  0  0  0  0  0  0  0  0
    3.6375    2.3833    0.0000 C   0  0  0  0  0  0  0  0  0  0  0  0
    2.4250    1.6833    0.0000 C   0  0  0  0  0  0  0  0  0  0  0  0
   11.8917    0.0000    0.0000 O   0  5  0  0  0  0  0  0  0  0  0  0
    7.0417    4.1917    0.0000 C   0  0  0  0  0  0  0  0  0  0  0  0
   13.1042    2.1000    0.0000 O   0  0  0  0  0  0  0  0  0  0  0  0
    1.2125    2.3833    0.0000 C   0  0  0  0  0  0  0  0  0  0  0  0
    2.4250    4.4667    0.0000 C   0  0  0  0  0  0  0  0  0  0  0  0
    5.0292    5.8750    0.0000 O   0  0  0  0  0  0  0  0  0  0  0  0
    1.2125    3.7833    0.0000 C   0  0  0  0  0  0  0  0  0  0  0  0
    9.4667    1.4000    0.0000 C   0  0  0  0  0  0  0  0  0  0  0  0
   10.6792    3.5000    0.0000 C   0  0  0  0  0  0  0  0  0  0  0  0
    8.2542    3.5000    0.0000 C   0  0  0  0  0  0  0  0  0  0  0  0
    2.4250    0.2833    0.0000 O   0  0  0  0  0  0  0  0  0  0  0  0
    8.2542    2.1000    0.0000 C   0  0  0  0  0  0  0  0  0  0  0  0
    9.4667    4.1917    0.0000 C   0  0  0  0  0  0  0  0  0  0  0  0
    0.0000    1.6833    0.0000 O   0  0  0  0  0  0  0  0  0  0  0  0
  2  9  2  0  0  0  0
  3  4  1  0  0  0  0
  4  2  1  0  0  0  0
  5  1  1  0  0  0  0
  6  3  1  0  0  0  0
  7  6  2  0  0  0  0
  8  1  1  0  0  0  0
  9 17  1  0  0  0  0
 10  1  2  0  0  0  0
 11 14  2  0  0  0  0
 12  3  2  0  0  0  0
 13  4  2  0  0  0  0
 14 12  1  0  0  0  0
 15  5  2  0  0  0  0
 16  5  1  0  0  0  0
 17 20  1  0  0  0  0
 18  7  1  0  0  0  0
 19 15  1  0  0  0  0
 20 16  2  0  0  0  0
 21 11  1  0  0  0  0
 17 19  2  0  0  0  0
 11  7  1  0  0  0  0
M  CHG  2   1   1   8  -1
M  END
> <#>
1314

> <PLATE>
LAT017

> <ROW>
B

> <COL>
6

> <COORD>
B06

> <LATID>
LAT017B06

> <Supplier>
Chembridge

> <Suplier_CAT#>
6987915

> <Name>
Novel

> <Concentration_(mM)>
2.5

> <IC50_(µM)>
>100

> <Yeast_Active?>
-

> <Pubchem_CID>
4988614

$$$$
