
  -ISIS-  08130814242D

 13 13  0  0  0  0  0  0  0  0999 V2000
    5.4875   -2.9917    0.0000 Cl  0  0  0  0  0  0  0  0  0  0  0  0
    5.5125   -4.3750    0.0000 C   0  0  0  0  0  0  0  0  0  0  0  0
    5.2792   -5.0875    0.0000 N   0  0  0  0  0  0  0  0  0  0  0  0
    4.9042   -3.9375    0.0000 N   0  0  0  0  0  0  0  0  0  0  0  0
    6.2250   -4.1292    0.0000 C   0  0  0  0  0  0  0  0  0  0  0  0
    6.7792   -4.6417    0.0000 C   0  0  0  0  0  0  0  0  0  0  0  0
    4.5292   -5.0875    0.0000 C   0  0  0  0  0  0  0  0  0  0  0  0
    4.3000   -4.3750    0.0000 C   0  0  0  0  0  0  0  0  0  0  0  0
    7.4917   -4.4125    0.0000 C   0  0  0  0  0  0  0  0  0  0  0  0
    6.6250   -5.3750    0.0000 C   0  0  0  0  0  0  0  0  0  0  0  0
    7.1792   -5.8792    0.0000 C   0  0  0  0  0  0  0  0  0  0  0  0
    8.0500   -4.9125    0.0000 C   0  0  0  0  0  0  0  0  0  0  0  0
    7.9000   -5.6500    0.0000 C   0  0  0  0  0  0  0  0  0  0  0  0
  3  2  2  0  0  0  0
  4  2  1  0  0  0  0
  5  2  1  0  0  0  0
  6  5  1  0  0  0  0
  7  3  1  0  0  0  0
  8  4  1  0  0  0  0
  9  6  2  0  0  0  0
 10  6  1  0  0  0  0
 11 10  2  0  0  0  0
 12  9  1  0  0  0  0
 13 12  2  0  0  0  0
  8  7  1  0  0  0  0
 11 13  1  0  0  0  0
M  END
> <#>
177

> <PLATE>
LAT003

> <ROW>
A

> <COL>
4

> <COORD>
A04

> <LATID>
LAT003A04

> <Supplier>
Microsource

> <Suplier_CAT#>
01500580

> <Name>
Tolazoline Hydrochloride

> <Concentration_(mM)>
2.5

> <IC50_(µM)>
inactive

> <Yeast_Active?>
-

> <Pubchem_CID>
5504

> <Description>
Adrenergic Blocker

$$$$
