
  -ISIS-  08130814242D

 21 22  0  0  0  0  0  0  0  0999 V2000
    4.6806   -2.2792    0.0000 C   0  0  0  0  0  0  0  0  0  0  0  0
    4.6776   -1.4560    0.0000 C   0  0  0  0  0  0  0  0  0  0  0  0
    3.9643   -1.0488    0.0000 C   0  0  0  0  0  0  0  0  0  0  0  0
    3.2535   -1.4637    0.0000 C   0  0  0  0  0  0  0  0  0  0  0  0
    3.2605   -2.2900    0.0000 C   0  0  0  0  0  0  0  0  0  0  0  0
    3.9744   -2.6935    0.0000 C   0  0  0  0  0  0  0  0  0  0  0  0
    4.6944   -3.9375    0.0000 C   0  0  0  0  0  0  0  0  0  0  0  0
    4.6932   -4.7648    0.0000 C   0  0  0  0  0  0  0  0  0  0  0  0
    5.4081   -5.1777    0.0000 C   0  0  0  0  0  0  0  0  0  0  0  0
    6.1245   -4.7644    0.0000 C   0  0  0  0  0  0  0  0  0  0  0  0
    6.1216   -3.9338    0.0000 C   0  0  0  0  0  0  0  0  0  0  0  0
    5.4063   -3.5247    0.0000 C   0  0  0  0  0  0  0  0  0  0  0  0
    6.8346   -3.5186    0.0000 N   0  0  0  0  0  0  0  0  0  0  0  0
    5.4038   -2.6997    0.0000 O   0  0  0  0  0  0  0  0  0  0  0  0
    3.9784   -5.1768    0.0000 N   0  3  0  0  0  0  0  0  0  0  0  0
    3.2629   -4.7657    0.0000 O   0  5  0  0  0  0  0  0  0  0  0  0
    3.9764   -6.0038    0.0000 O   0  0  0  0  0  0  0  0  0  0  0  0
    7.5458   -3.9292    0.0000 S   0  0  3  0  0  0  0  0  0  0  0  0
    8.2583   -3.5125    0.0000 C   0  0  0  0  0  0  0  0  0  0  0  0
    7.1292   -4.6417    0.0000 O   0  0  0  0  0  0  0  0  0  0  0  0
    8.1875   -4.5875    0.0000 O   0  0  0  0  0  0  0  0  0  0  0  0
 10 11  1  0  0  0  0
  5  6  2  0  0  0  0
 11 12  2  0  0  0  0
 12  7  1  0  0  0  0
  6  1  1  0  0  0  0
 11 13  1  0  0  0  0
  1  2  2  0  0  0  0
 12 14  1  0  0  0  0
  3  4  2  0  0  0  0
  8 15  1  0  0  0  0
  7  8  2  0  0  0  0
 15 16  1  0  0  0  0
 15 17  2  0  0  0  0
  8  9  1  0  0  0  0
 13 18  1  0  0  0  0
  4  5  1  0  0  0  0
 18 19  1  0  0  0  0
  9 10  2  0  0  0  0
 18 20  2  0  0  0  0
  2  3  1  0  0  0  0
 18 21  2  0  0  0  0
 14  1  1  0  0  0  0
M  CHG  2  15   1  16  -1
M  END
> <#>
254

> <PLATE>
LAT004

> <ROW>
F

> <COL>
3

> <COORD>
F03

> <LATID>
LAT004F03

> <Supplier>
Sigma

> <Suplier_CAT#>
N 1016

> <Name>
Nimesulide

> <Concentration_(mM)>
2.5

> <IC50_(µM)>
32

> <Yeast_Active?>
-

> <Pubchem_CID>
4495

> <Description>
Highly selective COX-2 inhibitor

$$$$
