
  -ISIS-  08130814242D

 26 27  0  0  0  0  0  0  0  0999 V2000
    0.6542   -1.9375    0.0000 C   0  0  0  0  0  0  0  0  0  0  0  0
    0.6542   -2.6875    0.0000 C   0  0  0  0  0  0  0  0  0  0  0  0
    2.6042   -1.5542    0.0000 C   0  0  0  0  0  0  0  0  0  0  0  0
    7.1542   -0.4375    0.0000 C   0  0  0  0  0  0  0  0  0  0  0  0
    3.9042   -1.5542    0.0000 N   0  0  0  0  0  0  0  0  0  0  0  0
    0.0042   -3.0667    0.0000 C   0  0  0  0  0  0  0  0  0  0  0  0
    6.5042   -0.8167    0.0000 C   0  0  0  0  0  0  0  0  0  0  0  0
    1.3042   -1.5542    0.0000 O   0  0  0  0  0  0  0  0  0  0  0  0
    3.2542   -1.9375    0.0000 N   0  0  0  0  0  0  0  0  0  0  0  0
    0.0042   -1.5542    0.0000 C   0  0  0  0  0  0  0  0  0  0  0  0
    2.6042   -0.8042    0.0000 O   0  0  0  0  0  0  0  0  0  0  0  0
    7.1542    0.3000    0.0000 O   0  0  0  0  0  0  0  0  0  0  0  0
    1.9542   -1.9375    0.0000 C   0  0  0  0  0  0  0  0  0  0  0  0
    6.5042   -1.5667    0.0000 C   0  0  0  0  0  0  0  0  0  0  0  0
    5.8542   -0.4375    0.0000 C   0  0  0  0  0  0  0  0  0  0  0  0
    4.5542   -1.9375    0.0000 C   0  0  0  0  0  0  0  0  0  0  0  0
    1.3042   -3.0667    0.0000 C   0  0  3  0  0  0  0  0  0  0  0  0
    7.8042   -0.8167    0.0000 O   0  0  0  0  0  0  0  0  0  0  0  0
   -0.6333   -2.6875    0.0000 C   0  0  0  0  0  0  0  0  0  0  0  0
   -0.6333   -1.9375    0.0000 C   0  0  0  0  0  0  0  0  0  0  0  0
    5.2042   -1.5667    0.0000 C   0  0  0  0  0  0  0  0  0  0  0  0
    5.8542   -1.9375    0.0000 C   0  0  0  0  0  0  0  0  0  0  0  0
    5.2042   -0.8167    0.0000 C   0  0  0  0  0  0  0  0  0  0  0  0
    1.9542   -2.6875    0.0000 C   0  0  0  0  0  0  0  0  0  0  0  0
    1.3042   -3.8167    0.0000 C   0  0  0  0  0  0  0  0  0  0  0  0
   -1.2833   -1.5542    0.0000 C   0  0  0  0  0  0  0  0  0  0  0  0
  2  1  2  0  0  0  0
  3 13  1  0  0  0  0
  4  7  1  0  0  0  0
  5  9  1  0  0  0  0
  6  2  1  0  0  0  0
  7 15  2  0  0  0  0
  8  1  1  0  0  0  0
  9  3  1  0  0  0  0
 10  1  1  0  0  0  0
 11  3  2  0  0  0  0
 12  4  2  0  0  0  0
 13  8  1  0  0  0  0
 14 22  2  0  0  0  0
 15 23  1  0  0  0  0
 16  5  2  0  0  0  0
 17  2  1  0  0  0  0
 18  4  1  0  0  0  0
 19 20  1  0  0  0  0
 20 10  2  0  0  0  0
 21 16  1  0  0  0  0
 22 21  1  0  0  0  0
 23 21  2  0  0  0  0
 24 17  1  0  0  0  0
 25 17  1  0  0  0  0
 26 20  1  0  0  0  0
  6 19  2  0  0  0  0
  7 14  1  0  0  0  0
M  END
> <#>
1884

> <PLATE>
LAT024

> <ROW>
D

> <COL>
7

> <COORD>
D07

> <LATID>
LAT024D07

> <Supplier>
Chembridge

> <Suplier_CAT#>
5466656

> <Name>
S001 A06

> <Concentration_(mM)>
2.5

> <IC50_(µM)>
>100

> <Yeast_Active?>
-

> <Pubchem_CID>
5992588

$$$$
