
  -ISIS-  08130814242D

 20 21  0  0  0  0  0  0  0  0999 V2000
    1.8792   -5.9500    0.0000 S   0  0  3  0  0  0  0  0  0  0  0  0
    1.1292   -5.9500    0.0000 C   0  0  0  0  0  0  0  0  0  0  0  0
    0.7542   -6.6000    0.0000 C   0  0  0  0  0  0  0  0  0  0  0  0
    0.7542   -5.3000    0.0000 C   0  0  0  0  0  0  0  0  0  0  0  0
    2.6292   -5.9500    0.0000 N   0  0  0  0  0  0  0  0  0  0  0  0
    1.8875   -5.2000    0.0000 O   0  0  0  0  0  0  0  0  0  0  0  0
    1.8792   -6.7000    0.0000 O   0  0  0  0  0  0  0  0  0  0  0  0
    0.0042   -5.3000    0.0000 C   0  0  0  0  0  0  0  0  0  0  0  0
    0.0042   -6.6000    0.0000 C   0  0  0  0  0  0  0  0  0  0  0  0
    4.1292   -5.9500    0.0000 N   0  0  0  0  0  0  0  0  0  0  0  0
    3.0042   -5.3000    0.0000 C   0  0  0  0  0  0  0  0  0  0  0  0
   -0.3625   -5.9500    0.0000 C   0  0  0  0  0  0  0  0  0  0  0  0
    3.7542   -5.3000    0.0000 C   0  0  0  0  0  0  0  0  0  0  0  0
    1.1375   -4.6500    0.0000 C   0  0  0  0  0  0  0  0  0  0  0  0
    1.1375   -7.2375    0.0000 C   0  0  0  0  0  0  0  0  0  0  0  0
    4.8792   -5.9542    0.0000 C   0  0  0  0  0  0  0  0  0  0  0  0
   -1.1125   -5.9500    0.0000 C   0  0  0  0  0  0  0  0  0  0  0  0
    4.1375   -4.6500    0.0000 C   0  0  0  0  0  0  0  0  0  0  0  0
    5.2542   -5.3042    0.0000 C   0  0  0  0  0  0  0  0  0  0  0  0
    4.8875   -4.6500    0.0000 C   0  0  0  0  0  0  0  0  0  0  0  0
  2  1  1  0  0  0  0
  3  2  1  0  0  0  0
  4  2  2  0  0  0  0
  5  1  1  0  0  0  0
  6  1  2  0  0  0  0
  7  1  2  0  0  0  0
  8  4  1  0  0  0  0
  9  3  2  0  0  0  0
 10 13  2  0  0  0  0
 11  5  1  0  0  0  0
 12  8  2  0  0  0  0
 13 11  1  0  0  0  0
 14  4  1  0  0  0  0
 15  3  1  0  0  0  0
 16 10  1  0  0  0  0
 17 12  1  0  0  0  0
 18 13  1  0  0  0  0
 19 20  1  0  0  0  0
 20 18  2  0  0  0  0
 12  9  1  0  0  0  0
 19 16  2  0  0  0  0
M  END
> <#>
1909

> <PLATE>
LAT024

> <ROW>
E

> <COL>
10

> <COORD>
E10

> <LATID>
LAT024E10

> <Supplier>
Chembridge

> <Suplier_CAT#>
5350444

> <Name>
S001 B10

> <Concentration_(mM)>
2.5

> <IC50_(µM)>
85

> <Yeast_Active?>
-

> <Pubchem_CID>
668987

$$$$
