
  -ISIS-  08130814242D

 19 21  0  0  0  0  0  0  0  0999 V2000
    2.9971    0.6104    0.0000 C   0  0  0  0  0  0  0  0  0  0  0  0
    2.9971   -0.6396    0.0000 C   0  0  0  0  0  0  0  0  0  0  0  0
    1.9145   -1.2646    0.0000 C   0  0  0  0  0  0  0  0  0  0  0  0
    0.8320   -0.6396    0.0000 C   0  0  0  0  0  0  0  0  0  0  0  0
    0.8320    0.6104    0.0000 C   0  0  0  0  0  0  0  0  0  0  0  0
    1.9145    1.2354    0.0000 C   0  0  0  0  0  0  0  0  0  0  0  0
   -0.2505    1.2354    0.0000 C   0  0  0  0  0  0  0  0  0  0  0  0
   -0.2505    2.4854    0.0000 O   0  0  0  0  0  0  0  0  0  0  0  0
   -1.3331    0.6104    0.0000 C   0  0  0  0  0  0  0  0  0  0  0  0
   -1.3331   -0.6396    0.0000 C   0  0  0  0  0  0  0  0  0  0  0  0
   -0.2505   -1.2646    0.0000 C   0  0  0  0  0  0  0  0  0  0  0  0
   -0.2505   -2.5146    0.0000 O   0  0  0  0  0  0  0  0  0  0  0  0
   -2.4156   -1.2646    0.0000 C   0  0  0  0  0  0  0  0  0  0  0  0
   -3.4981   -0.6396    0.0000 C   0  0  0  0  0  0  0  0  0  0  0  0
   -3.4981    0.6104    0.0000 C   0  0  0  0  0  0  0  0  0  0  0  0
   -2.4156    1.2354    0.0000 C   0  0  0  0  0  0  0  0  0  0  0  0
   -2.4156    2.4854    0.0000 O   0  0  0  0  0  0  0  0  0  0  0  0
   -4.5807   -1.2646    0.0000 O   0  0  0  0  0  0  0  0  0  0  0  0
   -2.4156   -2.5146    0.0000 O   0  0  0  0  0  0  0  0  0  0  0  0
  1  2  2  0  0  0  0
  2  3  1  0  0  0  0
  3  4  2  0  0  0  0
  4  5  1  0  0  0  0
  5  6  2  0  0  0  0
  1  6  1  0  0  0  0
  5  7  1  0  0  0  0
  7  8  2  0  0  0  0
  7  9  1  0  0  0  0
  9 10  2  0  0  0  0
 10 11  1  0  0  0  0
  4 11  1  0  0  0  0
 11 12  2  0  0  0  0
 10 13  1  0  0  0  0
 13 14  2  0  0  0  0
 14 15  1  0  0  0  0
 15 16  2  0  0  0  0
  9 16  1  0  0  0  0
 16 17  1  0  0  0  0
 14 18  1  0  0  0  0
 13 19  1  0  0  0  0
M  END
> <#>
359

> <PLATE>
LAT005

> <ROW>
G

> <COL>
6

> <COORD>
G06

> <LATID>
LAT005G06

> <Supplier>
Aldrich

> <Suplier_CAT#>
229148

> <Name>
Purpurin

> <Concentration_(mM)>
2.5

> <IC50_(µM)>
>100

> <Yeast_Active?>
+

> <Pubchem_CID>
6683

$$$$
