
  -ISIS-  08130814242D

 20 20  0  0  0  0  0  0  0  0999 V2000
    1.5167   -0.8667    0.0000 C   0  0  0  0  0  0  0  0  0  0  0  0
    0.7875   -1.2875    0.0000 C   0  0  0  0  0  0  0  0  0  0  0  0
    0.0542   -0.8667    0.0000 C   0  0  0  0  0  0  0  0  0  0  0  0
    1.5167   -0.0167    0.0000 C   0  0  0  0  0  0  0  0  0  0  0  0
    2.2167   -1.2792    0.0000 C   0  0  0  0  0  0  0  0  0  0  0  0
    2.9375   -0.9000    0.0000 O   0  0  0  0  0  0  0  0  0  0  0  0
    0.0542   -0.0167    0.0000 C   0  0  0  0  0  0  0  0  0  0  0  0
    0.7875   -1.8667    0.0000 O   0  0  0  0  0  0  0  0  0  0  0  0
    0.7875    0.4000    0.0000 C   0  0  0  0  0  0  0  0  0  0  0  0
   -0.6833    0.3500    0.0000 O   0  0  0  0  0  0  0  0  0  0  0  0
    2.2292   -2.0667    0.0000 C   0  0  0  0  0  0  0  0  0  0  0  0
   -1.4208   -0.0167    0.0000 C   0  0  0  0  0  0  0  0  0  0  0  0
    3.0667   -2.3792    0.0000 C   0  0  0  0  0  0  0  0  0  0  0  0
   -2.1625    0.4125    0.0000 C   0  0  0  0  0  0  0  0  0  0  0  0
   -5.0625    0.4125    0.0000 C   0  0  0  0  0  0  0  0  0  0  0  0
   -4.3500   -0.0167    0.0000 C   0  0  0  0  0  0  0  0  0  0  0  0
   -3.6125    0.4125    0.0000 C   0  0  0  0  0  0  0  0  0  0  0  0
   -2.8708   -0.0167    0.0000 C   0  0  0  0  0  0  0  0  0  0  0  0
   -5.8000   -0.0167    0.0000 C   0  0  0  0  0  0  0  0  0  0  0  0
    3.0667   -3.0792    0.0000 C   0  0  0  0  0  0  0  0  0  0  0  0
  2  1  1  0  0  0  0
  3  2  2  0  0  0  0
  4  1  2  0  0  0  0
  5  1  1  0  0  0  0
  6  5  2  0  0  0  0
  7  9  2  0  0  0  0
  8  2  1  0  0  0  0
  9  4  1  0  0  0  0
 10  7  1  0  0  0  0
 11  5  1  0  0  0  0
 12 10  1  0  0  0  0
 13 11  1  0  0  0  0
 14 12  1  0  0  0  0
 15 16  1  0  0  0  0
 16 17  1  0  0  0  0
 17 18  1  0  0  0  0
 18 14  1  0  0  0  0
 19 15  1  0  0  0  0
 20 13  1  0  0  0  0
  7  3  1  0  0  0  0
M  END
> <#>
1154

> <PLATE>
LAT015

> <ROW>
B

> <COL>
6

> <COORD>
B06

> <LATID>
LAT015B06

> <Supplier>
Chembridge

> <Suplier_CAT#>
5111183

> <Name>
Novel

> <Concentration_(mM)>
2.5

> <IC50_(µM)>
>100

> <Yeast_Active?>
-

> <Pubchem_CID>
NULL

$$$$
