
  -ISIS-  08130814242D

 19 20  0  0  0  0  0  0  0  0999 V2000
    0.8042   -1.0875    0.0000 S   0  0  3  0  0  0  0  0  0  0  0  0
    2.2792   -1.0792    0.0000 N   0  0  3  0  0  0  0  0  0  0  0  0
    3.0042    0.2125    0.0000 C   0  0  0  0  0  0  0  0  0  0  0  0
   -0.6833   -1.0875    0.0000 C   0  0  0  0  0  0  0  0  0  0  0  0
    0.8292   -2.5792    0.0000 O   0  0  0  0  0  0  0  0  0  0  0  0
    0.8000    0.3958    0.0000 O   0  0  0  0  0  0  0  0  0  0  0  0
    4.5042    0.2125    0.0000 C   0  0  0  0  0  0  0  0  0  0  0  0
   -1.4208   -2.4042    0.0000 C   0  0  0  0  0  0  0  0  0  0  0  0
   -1.4333    0.1625    0.0000 C   0  0  0  0  0  0  0  0  0  0  0  0
   -3.6458   -1.1375    0.0000 C   0  0  0  0  0  0  0  0  0  0  0  0
    3.0292   -2.3500    0.0000 C   0  0  0  0  0  0  0  0  0  0  0  0
   -2.8833   -2.4042    0.0000 C   0  0  0  0  0  0  0  0  0  0  0  0
   -2.9333    0.1625    0.0000 C   0  0  0  0  0  0  0  0  0  0  0  0
   -5.1125   -1.1792    0.0000 Cl  0  0  0  0  0  0  0  0  0  0  0  0
    2.2500    1.4833    0.0000 C   0  0  0  0  0  0  0  0  0  0  0  0
    5.2375   -1.0500    0.0000 C   0  0  0  0  0  0  0  0  0  0  0  0
    5.2292    1.5333    0.0000 C   0  0  0  0  0  0  0  0  0  0  0  0
    2.9792    2.7958    0.0000 C   0  0  0  0  0  0  0  0  0  0  0  0
    4.4542    2.8000    0.0000 C   0  0  0  0  0  0  0  0  0  0  0  0
  2  1  1  0  0  0  0
  3  2  1  0  0  0  0
  4  1  1  0  0  0  0
  5  1  2  0  0  0  0
  6  1  2  0  0  0  0
  7  3  1  0  0  0  0
  8  4  2  0  0  0  0
  9  4  1  0  0  0  0
 10 13  1  0  0  0  0
 11  2  1  0  0  0  0
 12  8  1  0  0  0  0
 13  9  2  0  0  0  0
 14 10  1  0  0  0  0
 15  3  2  0  0  0  0
 16  7  1  0  0  0  0
 17  7  2  0  0  0  0
 18 15  1  0  0  0  0
 19 18  2  0  0  0  0
 10 12  2  0  0  0  0
 19 17  1  0  0  0  0
M  END
> <#>
1075

> <PLATE>
LAT014

> <ROW>
C

> <COL>
6

> <COORD>
C06

> <LATID>
LAT014C06

> <Supplier>
Chembridge

> <Suplier_CAT#>
5601004

> <Name>
Novel

> <Concentration_(mM)>
2.5

> <IC50_(µM)>
25

> <Yeast_Active?>
-

> <Pubchem_CID>
872441

$$$$
