
  -ISIS-  08130814242D

 28 30  0  0  0  0  0  0  0  0999 V2000
    2.1917    3.7125    0.0000 S   0  0  3  0  0  0  0  0  0  0  0  0
    2.9417    3.7125    0.0000 N   0  0  3  0  0  0  0  0  0  0  0  0
    2.0042    2.9958    0.0000 C   0  0  0  0  0  0  0  0  0  0  0  0
    1.2792    2.7958    0.0000 C   0  0  0  0  0  0  0  0  0  0  0  0
    2.5292    2.4583    0.0000 C   0  0  0  0  0  0  0  0  0  0  0  0
    4.0667    3.0708    0.0000 C   0  0  3  0  0  0  0  0  0  0  0  0
    4.4417    2.4208    0.0000 C   0  0  0  0  0  0  0  0  0  0  0  0
    3.3167    3.0708    0.0000 C   0  0  0  0  0  0  0  0  0  0  0  0
    2.2542    4.4542    0.0000 O   0  0  0  0  0  0  0  0  0  0  0  0
    1.4542    3.8458    0.0000 O   0  0  0  0  0  0  0  0  0  0  0  0
    5.1917    2.4208    0.0000 N   0  0  0  0  0  0  0  0  0  0  0  0
    1.0792    2.0708    0.0000 C   0  0  0  0  0  0  0  0  0  0  0  0
    2.3375    1.7333    0.0000 C   0  0  0  0  0  0  0  0  0  0  0  0
    6.6917    1.1208    0.0000 N   0  0  0  0  0  0  0  0  0  0  0  0
    4.0667    1.7708    0.0000 O   0  0  0  0  0  0  0  0  0  0  0  0
    1.6125    1.5458    0.0000 C   0  0  0  0  0  0  0  0  0  0  0  0
    5.5667    1.7708    0.0000 C   0  0  0  0  0  0  0  0  0  0  0  0
    6.3167    1.7708    0.0000 C   0  0  0  0  0  0  0  0  0  0  0  0
    3.3167    4.3542    0.0000 C   0  0  0  0  0  0  0  0  0  0  0  0
    4.4417    3.7125    0.0000 C   0  0  0  0  0  0  0  0  0  0  0  0
    3.2542    2.6583    0.0000 C   0  0  0  0  0  0  0  0  0  0  0  0
    0.7417    3.3333    0.0000 C   0  0  0  0  0  0  0  0  0  0  0  0
    4.0667    4.3542    0.0000 C   0  0  0  0  0  0  0  0  0  0  0  0
    7.4417    1.1208    0.0000 C   0  0  0  0  0  0  0  0  0  0  0  0
    1.4167    0.8208    0.0000 C   0  0  0  0  0  0  0  0  0  0  0  0
    6.6917    2.4208    0.0000 C   0  0  0  0  0  0  0  0  0  0  0  0
    7.8167    1.7708    0.0000 C   0  0  0  0  0  0  0  0  0  0  0  0
    7.4417    2.4208    0.0000 C   0  0  0  0  0  0  0  0  0  0  0  0
  2  1  1  0  0  0  0
  3  1  1  0  0  0  0
  4  3  2  0  0  0  0
  5  3  1  0  0  0  0
  6  8  1  0  0  0  0
  7  6  1  0  0  0  0
  8  2  1  0  0  0  0
  9  1  2  0  0  0  0
 10  1  2  0  0  0  0
 11  7  1  0  0  0  0
 12  4  1  0  0  0  0
 13  5  2  0  0  0  0
 14 18  2  0  0  0  0
 15  7  2  0  0  0  0
 16 13  1  0  0  0  0
 17 11  1  0  0  0  0
 18 17  1  0  0  0  0
 19  2  1  0  0  0  0
 20 23  1  0  0  0  0
 21  5  1  0  0  0  0
 22  4  1  0  0  0  0
 23 19  1  0  0  0  0
 24 14  1  0  0  0  0
 25 16  1  0  0  0  0
 26 18  1  0  0  0  0
 27 28  1  0  0  0  0
 28 26  2  0  0  0  0
 16 12  2  0  0  0  0
 20  6  1  0  0  0  0
 24 27  2  0  0  0  0
M  END
> <#>
1442

> <PLATE>
LAT019

> <ROW>
B

> <COL>
2

> <COORD>
B02

> <LATID>
LAT019B02

> <Supplier>
Chembridge

> <Suplier_CAT#>
9002976

> <Name>
Novel

> <Concentration_(mM)>
2.5

> <IC50_(µM)>
31

> <Yeast_Active?>
-

> <Pubchem_CID>
2990152

$$$$
