
  -ISIS-  08130814242D

 22 24  0  0  0  0  0  0  0  0999 V2000
   -0.5208    1.6958    0.0000 N   0  0  3  0  0  0  0  0  0  0  0  0
   -1.1333    2.4208    0.0000 C   0  0  3  0  0  0  0  0  0  0  0  0
   -0.7208    0.8000    0.0000 C   0  0  0  0  0  0  0  0  0  0  0  0
    0.3292    2.0500    0.0000 N   0  0  0  0  0  0  0  0  0  0  0  0
   -0.6333    3.1958    0.0000 C   0  0  0  0  0  0  0  0  0  0  0  0
    0.2500    3.0000    0.0000 C   0  0  0  0  0  0  0  0  0  0  0  0
   -1.6125    0.5208    0.0000 N   0  0  0  0  0  0  0  0  0  0  0  0
   -1.7208    3.1208    0.0000 C   0  0  0  0  0  0  0  0  0  0  0  0
   -0.0458    0.2125    0.0000 O   0  0  0  0  0  0  0  0  0  0  0  0
   -1.6625    1.6958    0.0000 O   0  0  0  0  0  0  0  0  0  0  0  0
   -1.8000   -0.3542    0.0000 C   0  0  0  0  0  0  0  0  0  0  0  0
    0.9042    3.6458    0.0000 C   0  0  0  0  0  0  0  0  0  0  0  0
   -1.4208    3.9958    0.0000 C   0  0  0  0  0  0  0  0  0  0  0  0
   -2.6208    2.9708    0.0000 C   0  0  0  0  0  0  0  0  0  0  0  0
   -2.6708   -0.6500    0.0000 C   0  0  0  0  0  0  0  0  0  0  0  0
   -1.1458   -0.9792    0.0000 C   0  0  0  0  0  0  0  0  0  0  0  0
   -3.2208    3.6708    0.0000 C   0  0  0  0  0  0  0  0  0  0  0  0
   -2.0125    4.6792    0.0000 C   0  0  0  0  0  0  0  0  0  0  0  0
   -1.3208   -1.8542    0.0000 C   0  0  0  0  0  0  0  0  0  0  0  0
   -2.8500   -1.5500    0.0000 C   0  0  0  0  0  0  0  0  0  0  0  0
   -2.9333    4.5167    0.0000 C   0  0  0  0  0  0  0  0  0  0  0  0
   -2.1708   -2.1542    0.0000 C   0  0  0  0  0  0  0  0  0  0  0  0
  2  1  1  0  0  0  0
  3  1  1  0  0  0  0
  4  1  1  0  0  0  0
  5  2  1  0  0  0  0
  6  4  2  0  0  0  0
  7  3  1  0  0  0  0
  8  2  1  0  0  0  0
  9  3  2  0  0  0  0
 10  2  1  0  0  0  0
 11  7  1  0  0  0  0
 12  6  1  0  0  0  0
 13  8  2  0  0  0  0
 14  8  1  0  0  0  0
 15 11  2  0  0  0  0
 16 11  1  0  0  0  0
 17 14  2  0  0  0  0
 18 13  1  0  0  0  0
 19 16  2  0  0  0  0
 20 15  1  0  0  0  0
 21 17  1  0  0  0  0
 22 19  1  0  0  0  0
  6  5  1  0  0  0  0
 21 18  2  0  0  0  0
 22 20  2  0  0  0  0
M  END
> <#>
2073

> <PLATE>
LAT026

> <ROW>
A

> <COL>
11

> <COORD>
A11

> <LATID>
LAT026A11

> <Supplier>
Chembridge

> <Suplier_CAT#>
5666834

> <Sec_Name>
209_D02

> <Concentration_(mM)>
2.5

> <IC50_(µM)>
>100

> <Yeast_Active?>
-

> <Pubchem_CID>
867729

$$$$
