
  -ISIS-  08130814242D

 11 12  0  0  0  0  0  0  0  0999 V2000
    4.3750   -1.9542    0.0000 O   0  0  0  0  0  0  0  0  0  0  0  0
    5.0917   -2.3625    0.0000 C   0  0  0  0  0  0  0  0  0  0  0  0
    4.3792   -3.6042    0.0000 C   0  0  0  0  0  0  0  0  0  0  0  0
    3.6667   -2.3667    0.0000 C   0  0  0  0  0  0  0  0  0  0  0  0
    5.0917   -3.1917    0.0000 C   0  0  0  0  0  0  0  0  0  0  0  0
    3.6667   -3.1917    0.0000 C   0  0  0  0  0  0  0  0  0  0  0  0
    5.8042   -1.9417    0.0000 O   0  0  0  0  0  0  0  0  0  0  0  0
    2.9500   -1.9542    0.0000 C   0  0  0  0  0  0  0  0  0  0  0  0
    2.9500   -3.6125    0.0000 C   0  0  0  0  0  0  0  0  0  0  0  0
    2.2375   -2.3750    0.0000 C   0  0  0  0  0  0  0  0  0  0  0  0
    2.2375   -3.2000    0.0000 C   0  0  0  0  0  0  0  0  0  0  0  0
  2  1  1  0  0  0  0
  3  6  1  0  0  0  0
  4  1  1  0  0  0  0
  5  2  1  0  0  0  0
  6  4  1  0  0  0  0
  7  2  2  0  0  0  0
  8  4  2  0  0  0  0
  9  6  2  0  0  0  0
 10  8  1  0  0  0  0
 11 10  2  0  0  0  0
  3  5  2  0  0  0  0
 11  9  1  0  0  0  0
M  END
> <#>
31

> <PLATE>
LAT001

> <ROW>
G

> <COL>
5

> <COORD>
G05

> <LATID>
LAT001G05

> <Supplier>
Microsource

> <Suplier_CAT#>
01400208

> <Name>
Coumarin

> <Concentration_(mM)>
2.5

> <IC50_(µM)>
17

> <Yeast_Active?>
-

> <Pubchem_CID>
323

> <Description>
Antineoplastic, Antiinflammatory, Antihyperglycaemic

> <Source>
Natural Product; ex Coumarouna odorata, tonka beans, lavender oil

$$$$
