
  -ISIS-  08130814242D

 22 23  0  0  0  0  0  0  0  0999 V2000
    3.4875    2.0458    0.0000 C   0  0  0  0  0  0  0  0  0  0  0  0
    0.1875    2.0458    0.0000 C   0  0  0  0  0  0  0  0  0  0  0  0
    0.6000    1.3333    0.0000 C   0  0  0  0  0  0  0  0  0  0  0  0
    0.6000    2.7583    0.0000 C   0  0  0  0  0  0  0  0  0  0  0  0
    3.9000    1.3333    0.0000 C   0  0  0  0  0  0  0  0  0  0  0  0
    3.8875    2.7708    0.0000 C   0  0  0  0  0  0  0  0  0  0  0  0
    1.8375    2.0458    0.0000 C   0  0  0  0  0  0  0  0  0  0  0  0
    2.6625    2.0458    0.0000 O   0  0  0  0  0  0  0  0  0  0  0  0
    1.4250    2.7583    0.0000 C   0  0  0  0  0  0  0  0  0  0  0  0
    1.4250    1.3333    0.0000 C   0  0  0  0  0  0  0  0  0  0  0  0
    5.1292    2.0583    0.0000 C   0  0  0  0  0  0  0  0  0  0  0  0
    6.3750    1.3458    0.0000 C   0  0  0  0  0  0  0  0  0  0  0  0
    4.7125    2.7708    0.0000 C   0  0  0  0  0  0  0  0  0  0  0  0
    4.7250    1.3458    0.0000 C   0  0  0  0  0  0  0  0  0  0  0  0
    5.9667    0.6333    0.0000 O   0  0  0  0  0  0  0  0  0  0  0  0
    5.9542    2.0583    0.0000 C   0  0  0  0  0  0  0  0  0  0  0  0
    0.1875    0.6208    0.0000 I   0  0  0  0  0  0  0  0  0  0  0  0
    0.1792    3.4708    0.0000 I   0  0  0  0  0  0  0  0  0  0  0  0
    3.4875    0.6208    0.0000 I   0  0  0  0  0  0  0  0  0  0  0  0
    3.4667    3.4708    0.0000 I   0  0  0  0  0  0  0  0  0  0  0  0
   -0.6375    2.0458    0.0000 O   0  0  0  0  0  0  0  0  0  0  0  0
    7.2000    1.3583    0.0000 O   0  0  0  0  0  0  0  0  0  0  0  0
  2  3  1  0  0  0  0
  3 10  2  0  0  0  0
  4  9  1  0  0  0  0
  5  1  2  0  0  0  0
  6  1  1  0  0  0  0
  7  8  1  0  0  0  0
  8  1  1  0  0  0  0
  9  7  2  0  0  0  0
 10  7  1  0  0  0  0
 11 13  1  0  0  0  0
 12 16  1  0  0  0  0
 13  6  2  0  0  0  0
 14  5  1  0  0  0  0
 15 12  2  0  0  0  0
 16 11  1  0  0  0  0
 17  3  1  0  0  0  0
 18  4  1  0  0  0  0
 19  5  1  0  0  0  0
 20  6  1  0  0  0  0
 21  2  1  0  0  0  0
 22 12  1  0  0  0  0
 11 14  2  0  0  0  0
  2  4  2  0  0  0  0
M  END
> <#>
160

> <PLATE>
LAT002

> <ROW>
H

> <COL>
11

> <COORD>
H11

> <LATID>
LAT002H11

> <Supplier>
Microsource

> <Suplier_CAT#>
01500775

> <Name>
Tetrac

> <Concentration_(mM)>
2.5

> <IC50_(µM)>
20

> <Yeast_Active?>
-

> <Pubchem_CID>
65552

> <Description>
Thyroid Hormone

$$$$
