
  -ISIS-  08130814242D

 25 27  0  0  0  0  0  0  0  0999 V2000
   -0.3625   -0.0042    0.0000 C   0  0  0  0  0  0  0  0  0  0  0  0
    0.8375   -0.0042    0.0000 C   0  0  0  0  0  0  0  0  0  0  0  0
   -0.9458   -1.0292    0.0000 C   0  0  0  0  0  0  0  0  0  0  0  0
    1.4375   -1.0292    0.0000 N   0  0  3  0  0  0  0  0  0  0  0  0
    1.4375    1.0333    0.0000 C   0  0  0  0  0  0  0  0  0  0  0  0
   -0.3458   -2.0667    0.0000 O   0  0  0  0  0  0  0  0  0  0  0  0
   -2.1458   -1.0292    0.0000 C   0  0  0  0  0  0  0  0  0  0  0  0
    2.6375   -1.0292    0.0000 C   0  0  0  0  0  0  0  0  0  0  0  0
    0.8375    2.0500    0.0000 C   0  0  0  0  0  0  0  0  0  0  0  0
    2.6375    1.0333    0.0000 C   0  0  0  0  0  0  0  0  0  0  0  0
   -2.7458   -0.0042    0.0000 C   0  0  0  0  0  0  0  0  0  0  0  0
   -2.7833   -2.0875    0.0000 C   0  0  0  0  0  0  0  0  0  0  0  0
    3.2167   -0.0042    0.0000 C   0  0  0  0  0  0  0  0  0  0  0  0
    3.2375   -2.0667    0.0000 C   0  0  0  0  0  0  0  0  0  0  0  0
    3.2167    2.0708    0.0000 C   0  0  0  0  0  0  0  0  0  0  0  0
    1.4375    3.0958    0.0000 C   0  0  0  0  0  0  0  0  0  0  0  0
   -3.9208   -0.0042    0.0000 C   0  0  0  0  0  0  0  0  0  0  0  0
   -3.9208   -2.0875    0.0000 C   0  0  0  0  0  0  0  0  0  0  0  0
    4.4167   -2.0667    0.0000 C   0  0  0  0  0  0  0  0  0  0  0  0
    4.4167    0.0125    0.0000 C   0  0  0  0  0  0  0  0  0  0  0  0
   -4.5208   -1.0500    0.0000 C   0  0  0  0  0  0  0  0  0  0  0  0
    5.0167   -1.0292    0.0000 C   0  0  0  0  0  0  0  0  0  0  0  0
    2.6167    3.0958    0.0000 C   0  0  0  0  0  0  0  0  0  0  0  0
   -0.9625    1.0333    0.0000 H   0  0  0  0  0  0  0  0  0  0  0  0
    0.8542   -2.0667    0.0000 H   0  0  0  0  0  0  0  0  0  0  0  0
  2  1  2  0  0  0  0
  3  1  1  0  0  0  0
  4  2  1  0  0  0  0
  5  2  1  0  0  0  0
  6  3  2  0  0  0  0
  7  3  1  0  0  0  0
  8  4  1  0  0  0  0
  9  5  2  0  0  0  0
 10  5  1  0  0  0  0
 11  7  1  0  0  0  0
 12  7  2  0  0  0  0
 13  8  2  0  0  0  0
 14  8  1  0  0  0  0
 15 10  2  0  0  0  0
 16  9  1  0  0  0  0
 17 11  2  0  0  0  0
 18 12  1  0  0  0  0
 19 14  2  0  0  0  0
 20 13  1  0  0  0  0
 21 18  2  0  0  0  0
 22 19  1  0  0  0  0
 23 15  1  0  0  0  0
 24  1  1  0  0  0  0
 25  4  1  0  0  0  0
 21 17  1  0  0  0  0
 16 23  2  0  0  0  0
 20 22  2  0  0  0  0
M  END
> <#>
1720

> <PLATE>
LAT022

> <ROW>
H

> <COL>
6

> <COORD>
H06

> <LATID>
LAT022H06

> <Supplier>
Chembridge

> <Suplier_CAT#>
6617763

> <Name>
Novel

> <Concentration_(mM)>
2.5

> <IC50_(µM)>
inactive 

> <Yeast_Active?>
-

> <Pubchem_CID>
296783

$$$$
