
  -ISIS-  08130814242D

 27 29  0  0  0  0  0  0  0  0999 V2000
    4.9375   -5.5542    0.0000 C   0  0  0  0  0  0  0  0  0  0  0  0
    2.4000   -1.1667    0.0000 C   0  0  0  0  0  0  0  0  0  0  0  0
    7.5375   -7.1167    0.0000 C   0  0  0  0  0  0  0  0  0  0  0  0
    4.9375   -2.6292    0.0000 C   0  0  0  0  0  0  0  0  0  0  0  0
   -0.1333    6.2375    0.0000 C   0  0  0  0  0  0  0  0  0  0  0  0
   -0.1333   -2.6292    0.0000 C   0  0  0  0  0  0  0  0  0  0  0  0
    7.4667    7.7000    0.0000 C   0  0  0  0  0  0  0  0  0  0  0  0
   -0.1333    3.2125    0.0000 N   0  0  0  0  0  0  0  0  0  0  0  0
   10.0042    6.2375    0.0000 N   0  0  0  0  0  0  0  0  0  0  0  0
    2.4000    1.7500    0.0000 C   0  0  0  0  0  0  0  0  0  0  0  0
    4.9375    6.2375    0.0000 S   0  0  0  0  0  0  0  0  0  0  0  0
    2.4000   -7.0167    0.0000 C   0  0  0  0  0  0  0  0  0  0  0  0
   10.1375   -5.6500    0.0000 O   0  0  0  0  0  0  0  0  0  0  0  0
    7.5375  -10.1375    0.0000 C   0  0  0  0  0  0  0  0  0  0  0  0
   -2.6625    7.7000    0.0000 O   0  0  0  0  0  0  0  0  0  0  0  0
   -0.1333   -5.5542    0.0000 C   0  0  0  0  0  0  0  0  0  0  0  0
    2.4000    7.7000    0.0000 C   0  0  0  0  0  0  0  0  0  0  0  0
   -2.7333   -1.0667    0.0000 O   0  0  0  0  0  0  0  0  0  0  0  0
   12.5500    7.7000    0.0000 C   0  0  0  0  0  0  0  0  0  0  0  0
    7.4667   10.6292    0.0000 C   0  0  0  0  0  0  0  0  0  0  0  0
   10.0792  -11.6042    0.0000 C   0  0  0  0  0  0  0  0  0  0  0  0
    5.0000  -11.6042    0.0000 C   0  0  0  0  0  0  0  0  0  0  0  0
   12.5500   10.6292    0.0000 C   0  0  0  0  0  0  0  0  0  0  0  0
   10.0042   12.0875    0.0000 C   0  0  0  0  0  0  0  0  0  0  0  0
   10.0792  -14.5292    0.0000 C   0  0  0  0  0  0  0  0  0  0  0  0
    5.0000  -14.5292    0.0000 C   0  0  0  0  0  0  0  0  0  0  0  0
    7.5375  -16.0000    0.0000 C   0  0  0  0  0  0  0  0  0  0  0  0
  2  4  2  0  0  0  0
  3  1  1  0  0  0  0
  4  1  1  0  0  0  0
  5  8  1  0  0  0  0
  6 16  2  0  0  0  0
  7 11  1  0  0  0  0
  8 10  1  0  0  0  0
  9  7  1  0  0  0  0
 10  2  1  0  0  0  0
 11 17  1  0  0  0  0
 12  1  2  0  0  0  0
 13  3  2  0  0  0  0
 14  3  1  0  0  0  0
 15  5  2  0  0  0  0
 16 12  1  0  0  0  0
 17  5  1  0  0  0  0
 18  6  1  0  0  0  0
 19  9  2  0  0  0  0
 20  7  2  0  0  0  0
 21 14  1  0  0  0  0
 22 14  2  0  0  0  0
 23 24  2  0  0  0  0
 24 20  1  0  0  0  0
 25 21  2  0  0  0  0
 26 22  1  0  0  0  0
 27 26  2  0  0  0  0
  2  6  1  0  0  0  0
 27 25  1  0  0  0  0
 19 23  1  0  0  0  0
M  END
> <#>
1328

> <PLATE>
LAT017

> <ROW>
H

> <COL>
7

> <COORD>
H07

> <LATID>
LAT017H07

> <Supplier>
Chembridge

> <Suplier_CAT#>
7115089

> <Name>
Novel

> <Concentration_(mM)>
2.5

> <IC50_(µM)>
>100

> <Yeast_Active?>
-

> <Pubchem_CID>
592610

$$$$
