
  -ISIS-  08130814242D

 15 15  0  0  0  0  0  0  0  0999 V2000
    0.9000    0.0000    0.0000 C   0  0  0  0  0  0  0  0  0  0  0  0
    0.0000    0.0000    0.0000 N   0  0  0  0  0  0  0  0  0  0  0  0
   -2.1833   -0.5875    0.0000 N   0  0  0  0  0  0  0  0  0  0  0  0
    1.4167    0.7833    0.0000 O   0  0  0  0  0  0  0  0  0  0  0  0
    1.6875   -0.4500    0.0000 C   0  0  3  0  0  0  0  0  0  0  0  0
   -0.6125   -0.5042    0.0000 C   0  0  0  0  0  0  0  0  0  0  0  0
   -1.3708   -0.1167    0.0000 C   0  0  0  0  0  0  0  0  0  0  0  0
   -2.9958   -0.1167    0.0000 C   0  0  0  0  0  0  0  0  0  0  0  0
    2.4792    0.0000    0.0000 C   0  0  0  0  0  0  0  0  0  0  0  0
    1.7042   -1.3167    0.0000 C   0  0  0  0  0  0  0  0  0  0  0  0
   -1.3708    0.8208    0.0000 C   0  0  0  0  0  0  0  0  0  0  0  0
    3.2667   -0.4500    0.0000 C   0  0  0  0  0  0  0  0  0  0  0  0
   -2.9958    0.8208    0.0000 C   0  0  0  0  0  0  0  0  0  0  0  0
    4.0542    0.0000    0.0000 C   0  0  0  0  0  0  0  0  0  0  0  0
   -2.1833    1.2958    0.0000 C   0  0  0  0  0  0  0  0  0  0  0  0
  2  1  1  0  0  0  0
  3  7  1  0  0  0  0
  4  1  2  0  0  0  0
  5  1  1  0  0  0  0
  6  2  1  0  0  0  0
  7  6  1  0  0  0  0
  8  3  2  0  0  0  0
  9  5  1  0  0  0  0
 10  5  1  0  0  0  0
 11  7  2  0  0  0  0
 12  9  1  0  0  0  0
 13 15  2  0  0  0  0
 14 12  1  0  0  0  0
 15 11  1  0  0  0  0
 13  8  1  0  0  0  0
M  END
> <#>
1556

> <PLATE>
LAT020

> <ROW>
D

> <COL>
6

> <COORD>
D06

> <LATID>
LAT020D06

> <Supplier>
Chembridge

> <Suplier_CAT#>
6205045

> <Name>
Novel

> <Concentration_(mM)>
2.5

> <IC50_(µM)>
inactive

> <Yeast_Active?>
-

> <Pubchem_CID>
842520

$$$$
