
  -ISIS-  08130814242D

 24 26  0  0  0  0  0  0  0  0999 V2000
   -3.5833  -21.8917    0.0000 C   0  0  0  0  0  0  0  0  0  0  0  0
   -3.6333  -21.3125    0.0000 C   0  0  0  0  0  0  0  0  0  0  0  0
   -3.0500  -22.1417    0.0000 N   0  0  0  0  0  0  0  0  0  0  0  0
   -2.6250  -21.2167    0.0000 N   0  0  0  0  0  0  0  0  0  0  0  0
   -3.1583  -20.9750    0.0000 C   0  0  0  0  0  0  0  0  0  0  0  0
   -4.1208  -22.1167    0.0000 S   0  0  0  0  0  0  0  0  0  0  0  0
   -2.5708  -21.8042    0.0000 C   0  0  0  0  0  0  0  0  0  0  0  0
   -4.2083  -21.1792    0.0000 C   0  0  0  0  0  0  0  0  0  0  0  0
   -4.5083  -21.6792    0.0000 C   0  0  0  0  0  0  0  0  0  0  0  0
   -0.5458  -21.6167    0.0000 C   0  0  0  0  0  0  0  0  0  0  0  0
   -0.0125  -21.8667    0.0000 C   0  0  0  0  0  0  0  0  0  0  0  0
    0.4667  -21.5292    0.0000 C   0  0  0  0  0  0  0  0  0  0  0  0
   -1.0208  -21.9542    0.0000 C   0  0  0  0  0  0  0  0  0  0  0  0
   -2.0375  -22.0500    0.0000 S   0  0  0  0  0  0  0  0  0  0  0  0
    0.4167  -20.9417    0.0000 C   0  0  0  0  0  0  0  0  0  0  0  0
   -1.5583  -21.7125    0.0000 C   0  0  0  0  0  0  0  0  0  0  0  0
   -0.6000  -21.0375    0.0000 C   0  0  0  0  0  0  0  0  0  0  0  0
   -0.9708  -22.5417    0.0000 O   0  0  0  0  0  0  0  0  0  0  0  0
   -0.1208  -20.6917    0.0000 C   0  0  0  0  0  0  0  0  0  0  0  0
   -3.2083  -20.3917    0.0000 O   0  0  0  0  0  0  0  0  0  0  0  0
    1.0000  -21.7750    0.0000 O   0  0  0  0  0  0  0  0  0  0  0  0
   -4.4333  -20.6375    0.0000 C   0  0  0  0  0  0  0  0  0  0  0  0
   -5.0958  -21.7292    0.0000 C   0  0  0  0  0  0  0  0  0  0  0  0
    0.8917  -20.6042    0.0000 O   0  0  0  0  0  0  0  0  0  0  0  0
  2  1  2  0  0  0  0
  3  1  1  0  0  0  0
  4  7  1  0  0  0  0
  5  2  1  0  0  0  0
  6  1  1  0  0  0  0
  7  3  2  0  0  0  0
  8  2  1  0  0  0  0
  9  6  1  0  0  0  0
 10 13  1  0  0  0  0
 11 10  2  0  0  0  0
 12 11  1  0  0  0  0
 13 16  1  0  0  0  0
 14  7  1  0  0  0  0
 15 19  1  0  0  0  0
 16 14  1  0  0  0  0
 17 10  1  0  0  0  0
 18 13  2  0  0  0  0
 19 17  2  0  0  0  0
 20  5  1  0  0  0  0
 21 12  1  0  0  0  0
 22  8  1  0  0  0  0
 23  9  1  0  0  0  0
 24 15  1  0  0  0  0
  8  9  2  0  0  0  0
  4  5  2  0  0  0  0
 12 15  2  0  0  0  0
M  END
> <#>
1262

> <PLATE>
LAT016

> <ROW>
F

> <COL>
9

> <COORD>
F09

> <LATID>
LAT016F09

> <Supplier>
Chembridge

> <Suplier_CAT#>
6613772

> <Name>
Novel

> <Concentration_(mM)>
2.5

> <IC50_(µM)>
inactive

> <Yeast_Active?>
-

> <Pubchem_CID>
NULL

$$$$
