
  -ISIS-  08130814242D

 19 20  0  0  0  0  0  0  0  0999 V2000
   -3.8625    0.8333    0.0000 C   0  0  0  0  0  0  0  0  0  0  0  0
   -2.8000    0.8500    0.0000 C   0  0  0  0  0  0  0  0  0  0  0  0
   -2.2833    1.1500    0.0000 C   0  0  0  0  0  0  0  0  0  0  0  0
   -3.3208    1.1500    0.0000 C   0  0  0  0  0  0  0  0  0  0  0  0
   -1.2458    1.1500    0.0000 C   0  0  0  0  0  0  0  0  0  0  0  0
   -0.7208    0.8500    0.0000 C   0  0  0  0  0  0  0  0  0  0  0  0
   -1.7625    0.8500    0.0000 C   0  0  0  0  0  0  0  0  0  0  0  0
   -3.8625    0.2333    0.0000 C   0  0  0  0  0  0  0  0  0  0  0  0
   -3.3208    1.7500    0.0000 O   0  0  0  0  0  0  0  0  0  0  0  0
   -1.7625    0.2500    0.0000 C   0  0  0  0  0  0  0  0  0  0  0  0
   -0.7208    0.2500    0.0000 C   0  0  0  0  0  0  0  0  0  0  0  0
   -1.2458    1.7500    0.0000 Cl  0  0  0  0  0  0  0  0  0  0  0  0
   -1.2458   -0.0667    0.0000 C   0  0  0  0  0  0  0  0  0  0  0  0
   -0.1833   -0.0667    0.0000 Cl  0  0  0  0  0  0  0  0  0  0  0  0
   -3.3458   -0.1042    0.0000 O   0  0  0  0  0  0  0  0  0  0  0  0
   -4.3833    1.1333    0.0000 C   0  0  0  0  0  0  0  0  0  0  0  0
   -4.3833   -0.0875    0.0000 C   0  0  0  0  0  0  0  0  0  0  0  0
   -4.9083    0.8333    0.0000 C   0  0  0  0  0  0  0  0  0  0  0  0
   -4.9083    0.2333    0.0000 C   0  0  0  0  0  0  0  0  0  0  0  0
  2  4  1  0  0  0  0
  3  2  2  0  0  0  0
  4  1  1  0  0  0  0
  5  7  1  0  0  0  0
  6  5  2  0  0  0  0
  7  3  1  0  0  0  0
  8  1  2  0  0  0  0
  9  4  2  0  0  0  0
 10  7  2  0  0  0  0
 11 13  2  0  0  0  0
 12  5  1  0  0  0  0
 13 10  1  0  0  0  0
 14 11  1  0  0  0  0
 15  8  1  0  0  0  0
 16  1  1  0  0  0  0
 17  8  1  0  0  0  0
 18 16  2  0  0  0  0
 19 18  1  0  0  0  0
 17 19  2  0  0  0  0
  6 11  1  0  0  0  0
M  END
> <#>
1229

> <PLATE>
LAT016

> <ROW>
E

> <COL>
5

> <COORD>
E05

> <LATID>
LAT016E05

> <Supplier>
Chembridge

> <Suplier_CAT#>
6150364

> <Name>
Novel

> <Concentration_(mM)>
2.5

> <IC50_(µM)>
inactive

> <Yeast_Active?>
-

> <Pubchem_CID>
2888278

$$$$
