
  -ISIS-  08130814242D

 21 22  0  0  0  0  0  0  0  0999 V2000
    3.1292   -1.7292    0.0000 C   0  0  0  0  0  0  0  0  0  0  0  0
    5.0792   -2.1042    0.0000 C   0  0  0  0  0  0  0  0  0  0  0  0
    3.7875   -2.1042    0.0000 N   0  0  0  0  0  0  0  0  0  0  0  0
    4.4375   -1.7292    0.0000 C   0  0  0  0  0  0  0  0  0  0  0  0
    5.7292   -1.7292    0.0000 C   0  0  0  0  0  0  0  0  0  0  0  0
    1.8292   -1.7292    0.0000 S   0  0  0  0  0  0  0  0  0  0  0  0
    3.1292   -0.9792    0.0000 O   0  0  0  0  0  0  0  0  0  0  0  0
    2.4792   -2.1042    0.0000 C   0  0  0  0  0  0  0  0  0  0  0  0
    1.1667   -2.1042    0.0000 C   0  0  0  0  0  0  0  0  0  0  0  0
   -0.1208   -2.8542    0.0000 C   0  0  0  0  0  0  0  0  0  0  0  0
   -0.7708   -3.2375    0.0000 Cl  0  0  0  0  0  0  0  0  0  0  0  0
    0.5167   -1.7292    0.0000 C   0  0  0  0  0  0  0  0  0  0  0  0
    1.1667   -2.8542    0.0000 C   0  0  0  0  0  0  0  0  0  0  0  0
   -0.1208   -2.1042    0.0000 C   0  0  0  0  0  0  0  0  0  0  0  0
    0.5167   -3.2375    0.0000 C   0  0  0  0  0  0  0  0  0  0  0  0
    5.7292   -0.9792    0.0000 O   0  0  0  0  0  0  0  0  0  0  0  0
    5.0792   -2.8542    0.0000 C   0  0  0  0  0  0  0  0  0  0  0  0
    6.3792   -2.1042    0.0000 C   0  0  0  0  0  0  0  0  0  0  0  0
    6.3792   -0.6042    0.0000 C   0  0  0  0  0  0  0  0  0  0  0  0
    5.7292   -3.2292    0.0000 C   0  0  0  0  0  0  0  0  0  0  0  0
    6.3792   -2.8542    0.0000 C   0  0  0  0  0  0  0  0  0  0  0  0
  2  4  1  0  0  0  0
  3  1  1  0  0  0  0
  4  3  1  0  0  0  0
  5  2  2  0  0  0  0
  6  8  1  0  0  0  0
  7  1  2  0  0  0  0
  8  1  1  0  0  0  0
  9  6  1  0  0  0  0
 10 15  2  0  0  0  0
 11 10  1  0  0  0  0
 12  9  1  0  0  0  0
 13  9  2  0  0  0  0
 14 12  2  0  0  0  0
 15 13  1  0  0  0  0
 16  5  1  0  0  0  0
 17  2  1  0  0  0  0
 18  5  1  0  0  0  0
 19 16  1  0  0  0  0
 20 17  2  0  0  0  0
 21 20  1  0  0  0  0
 10 14  1  0  0  0  0
 18 21  2  0  0  0  0
M  END
> <#>
1776

> <PLATE>
LAT023

> <ROW>
H

> <COL>
3

> <COORD>
H03

> <LATID>
LAT023H03

> <Supplier>
Chembridge

> <Suplier_CAT#>
5537855

> <Name>
Novel

> <Sec_Name>
158_A04

> <Concentration_(mM)>
2.5

> <IC50_(µM)>
5

> <Yeast_Active?>
-

> <Pubchem_CID>
684893

$$$$
