
  -ISIS-  08130814242D

 24 26  0  0  0  0  0  0  0  0999 V2000
   -0.0958    1.4958    0.0000 N   0  0  3  0  0  0  0  0  0  0  0  0
    0.7292    1.0208    0.0000 C   0  0  0  0  0  0  0  0  0  0  0  0
   -0.9125    1.0208    0.0000 C   0  0  0  0  0  0  0  0  0  0  0  0
   -1.7333    1.4958    0.0000 C   0  0  0  0  0  0  0  0  0  0  0  0
    1.5375    1.4958    0.0000 O   0  0  0  0  0  0  0  0  0  0  0  0
    0.7292    0.0958    0.0000 C   0  0  0  0  0  0  0  0  0  0  0  0
   -0.0958    2.4208    0.0000 C   0  0  0  0  0  0  0  0  0  0  0  0
   -1.7333    2.4208    0.0000 O   0  0  0  0  0  0  0  0  0  0  0  0
   -2.5625    1.0208    0.0000 C   0  0  0  0  0  0  0  0  0  0  0  0
    1.5375   -0.3667    0.0000 C   0  0  0  0  0  0  0  0  0  0  0  0
   -0.0708   -0.3792    0.0000 C   0  0  0  0  0  0  0  0  0  0  0  0
    0.7167    2.8958    0.0000 C   0  0  0  0  0  0  0  0  0  0  0  0
   -0.9000    2.8958    0.0000 C   0  0  0  0  0  0  0  0  0  0  0  0
   -2.5625    0.0833    0.0000 C   0  0  0  0  0  0  0  0  0  0  0  0
   -3.3708    1.4958    0.0000 C   0  0  0  0  0  0  0  0  0  0  0  0
    0.7167    3.8333    0.0000 C   0  0  0  0  0  0  0  0  0  0  0  0
    1.5500   -1.3042    0.0000 C   0  0  0  0  0  0  0  0  0  0  0  0
   -4.1833    1.0208    0.0000 C   0  0  0  0  0  0  0  0  0  0  0  0
   -3.3708   -0.3875    0.0000 C   0  0  0  0  0  0  0  0  0  0  0  0
   -0.9000    3.8333    0.0000 C   0  0  0  0  0  0  0  0  0  0  0  0
   -0.0625   -1.3167    0.0000 C   0  0  0  0  0  0  0  0  0  0  0  0
   -0.0958    4.2917    0.0000 C   0  0  0  0  0  0  0  0  0  0  0  0
   -4.1833    0.0833    0.0000 C   0  0  0  0  0  0  0  0  0  0  0  0
    0.7500   -1.7875    0.0000 C   0  0  0  0  0  0  0  0  0  0  0  0
  2  1  1  0  0  0  0
  3  1  1  0  0  0  0
  4  3  1  0  0  0  0
  5  2  2  0  0  0  0
  6  2  1  0  0  0  0
  7  1  1  0  0  0  0
  8  4  2  0  0  0  0
  9  4  1  0  0  0  0
 10  6  1  0  0  0  0
 11  6  2  0  0  0  0
 12  7  2  0  0  0  0
 13  7  1  0  0  0  0
 14  9  2  0  0  0  0
 15  9  1  0  0  0  0
 16 12  1  0  0  0  0
 17 10  2  0  0  0  0
 18 15  2  0  0  0  0
 19 14  1  0  0  0  0
 20 13  2  0  0  0  0
 21 11  1  0  0  0  0
 22 20  1  0  0  0  0
 23 18  1  0  0  0  0
 24 21  2  0  0  0  0
 16 22  2  0  0  0  0
 24 17  1  0  0  0  0
 23 19  2  0  0  0  0
M  END
> <#>
1758

> <PLATE>
LAT022

> <ROW>
F

> <COL>
11

> <COORD>
F11

> <LATID>
LAT022F11

> <Supplier>
Chembridge

> <Suplier_CAT#>
5466854

> <Name>
Novel

> <Sec_Name>
131_G10

> <Concentration_(mM)>
2.5

> <IC50_(µM)>
18

> <Yeast_Active?>
-

> <Pubchem_CID>
569462

$$$$
