
  -ISIS-  08130814242D

 22 25  0  0  0  0  0  0  0  0999 V2000
   -2.7125    0.2000    0.0000 C   0  0  3  0  0  0  0  0  0  0  0  0
   -1.5708   -0.2792    0.0000 N   0  0  0  0  0  0  0  0  0  0  0  0
   -0.6125    0.1458    0.0000 C   0  0  0  0  0  0  0  0  0  0  0  0
   -4.5958    0.1458    0.0000 C   0  0  3  0  0  0  0  0  0  0  0  0
   -3.6833    1.4125    0.0000 C   0  0  3  0  0  0  0  0  0  0  0  0
   -4.4083   -0.3000    0.0000 C   0  0  3  0  0  0  0  0  0  0  0  0
   -3.4833   -0.1167    0.0000 C   0  0  0  0  0  0  0  0  0  0  0  0
   -2.7000    1.1000    0.0000 C   0  0  0  0  0  0  0  0  0  0  0  0
   -3.3333   -0.6042    0.0000 C   0  0  0  0  0  0  0  0  0  0  0  0
   -0.6208    1.1500    0.0000 O   0  0  0  0  0  0  0  0  0  0  0  0
   -4.6208    0.9958    0.0000 C   0  0  0  0  0  0  0  0  0  0  0  0
   -4.4333    0.7125    0.0000 C   0  0  0  0  0  0  0  0  0  0  0  0
   -5.2708   -0.7292    0.0000 C   0  0  0  0  0  0  0  0  0  0  0  0
    1.1542    0.3625    0.0000 O   0  0  0  0  0  0  0  0  0  0  0  0
    0.3542   -0.2542    0.0000 C   0  0  0  0  0  0  0  0  0  0  0  0
    2.2292   -0.1542    0.0000 C   0  0  0  0  0  0  0  0  0  0  0  0
    4.0792   -1.1292    0.0000 C   0  0  0  0  0  0  0  0  0  0  0  0
    4.9292   -1.6375    0.0000 Cl  0  0  0  0  0  0  0  0  0  0  0  0
    3.0292    0.4333    0.0000 C   0  0  0  0  0  0  0  0  0  0  0  0
    2.2292   -1.1042    0.0000 C   0  0  0  0  0  0  0  0  0  0  0  0
    3.2500   -1.6792    0.0000 C   0  0  0  0  0  0  0  0  0  0  0  0
    4.0792   -0.0792    0.0000 C   0  0  0  0  0  0  0  0  0  0  0  0
  2  1  1  0  0  0  0
  3  2  1  0  0  0  0
  4  7  1  0  0  0  0
  5  8  1  0  0  0  0
  6  9  1  0  0  0  0
  7  1  1  0  0  0  0
  8  1  1  0  0  0  0
  9  1  1  0  0  0  0
 10  3  2  0  0  0  0
 11  5  1  0  0  0  0
 12  6  1  0  0  0  0
 13  6  1  0  0  0  0
 14 15  1  0  0  0  0
 15  3  1  0  0  0  0
 16 14  1  0  0  0  0
 17 21  2  0  0  0  0
 18 17  1  0  0  0  0
 19 16  1  0  0  0  0
 20 16  2  0  0  0  0
 21 20  1  0  0  0  0
 22 19  2  0  0  0  0
  4 13  1  0  0  0  0
  5 12  1  0  0  0  0
  4 11  1  0  0  0  0
 17 22  1  0  0  0  0
M  END
> <#>
545

> <PLATE>
LAT007

> <ROW>
A

> <COL>
10

> <COORD>
A10

> <LATID>
LAT007A10

> <Supplier>
Chembridge

> <Suplier_CAT#>
5471301

> <Name>
Novel

> <Sec_Name>
134_G08

> <Concentration_(mM)>
2.5

> <IC50_(µM)>
5

> <Yeast_Active?>
-

> <Pubchem_CID>
NULL

$$$$
