
  -ISIS-  08130814242D

 22 24  0  0  0  0  0  0  0  0999 V2000
   -0.7208    0.1958    0.0000 N   0  0  3  0  0  0  0  0  0  0  0  0
   -0.0625   -0.5542    0.0000 C   0  0  0  0  0  0  0  0  0  0  0  0
   -0.2208    1.0125    0.0000 C   0  0  0  0  0  0  0  0  0  0  0  0
    0.8667   -0.1542    0.0000 C   0  0  0  0  0  0  0  0  0  0  0  0
    0.7875    0.8208    0.0000 S   0  0  0  0  0  0  0  0  0  0  0  0
   -1.7458    0.1958    0.0000 N   0  0  0  0  0  0  0  0  0  0  0  0
    1.7375   -0.6292    0.0000 C   0  0  0  0  0  0  0  0  0  0  0  0
   -2.2125   -0.6375    0.0000 C   0  0  0  0  0  0  0  0  0  0  0  0
    2.5875   -0.1042    0.0000 C   0  0  0  0  0  0  0  0  0  0  0  0
   -0.6125    1.9833    0.0000 S   0  0  0  0  0  0  0  0  0  0  0  0
   -0.2625   -1.5667    0.0000 O   0  0  0  0  0  0  0  0  0  0  0  0
    3.5042   -0.5042    0.0000 O   0  0  0  0  0  0  0  0  0  0  0  0
   -1.7458   -1.5375    0.0000 O   0  0  0  0  0  0  0  0  0  0  0  0
   -3.2458   -0.6375    0.0000 C   0  0  0  0  0  0  0  0  0  0  0  0
    2.6875    0.9208    0.0000 C   0  0  0  0  0  0  0  0  0  0  0  0
    4.1875    0.2625    0.0000 C   0  0  0  0  0  0  0  0  0  0  0  0
    3.6667    1.1125    0.0000 C   0  0  0  0  0  0  0  0  0  0  0  0
   -3.7500   -1.5167    0.0000 C   0  0  0  0  0  0  0  0  0  0  0  0
   -3.7625    0.2000    0.0000 C   0  0  0  0  0  0  0  0  0  0  0  0
   -4.7708    0.2000    0.0000 C   0  0  0  0  0  0  0  0  0  0  0  0
   -4.7708   -1.5167    0.0000 C   0  0  0  0  0  0  0  0  0  0  0  0
   -5.2708   -0.6375    0.0000 C   0  0  0  0  0  0  0  0  0  0  0  0
  2  1  1  0  0  0  0
  3  1  1  0  0  0  0
  4  2  1  0  0  0  0
  5  3  1  0  0  0  0
  6  1  1  0  0  0  0
  7  4  2  0  0  0  0
  8  6  1  0  0  0  0
  9  7  1  0  0  0  0
 10  3  2  0  0  0  0
 11  2  2  0  0  0  0
 12  9  1  0  0  0  0
 13  8  2  0  0  0  0
 14  8  1  0  0  0  0
 15  9  2  0  0  0  0
 16 12  1  0  0  0  0
 17 15  1  0  0  0  0
 18 14  1  0  0  0  0
 19 14  2  0  0  0  0
 20 19  1  0  0  0  0
 21 18  2  0  0  0  0
 22 20  2  0  0  0  0
  4  5  1  0  0  0  0
 21 22  1  0  0  0  0
 17 16  2  0  0  0  0
M  END
> <#>
618

> <PLATE>
LAT008

> <ROW>
B

> <COL>
9

> <COORD>
B09

> <LATID>
LAT008B09

> <Supplier>
Chembridge

> <Suplier_CAT#>
5535574

> <Name>
Novel

> <Sec_Name>
155_A03

> <Concentration_(mM)>
2.5

> <IC50_(µM)>
>100

> <Yeast_Active?>
-

> <Pubchem_CID>
1368405

$$$$
