
  -ISIS-  08130814242D

 19 20  0  0  0  0  0  0  0  0999 V2000
    2.4167    1.9583    0.0000 N   0  0  0  0  0  0  0  0  0  0  0  0
    1.7667    1.5833    0.0000 C   0  0  0  0  0  0  0  0  0  0  0  0
    3.0667    1.5833    0.0000 C   0  0  0  0  0  0  0  0  0  0  0  0
   -0.8250    1.5833    0.0000 C   0  0  0  0  0  0  0  0  0  0  0  0
   -1.4750    1.9583    0.0000 C   0  0  0  0  0  0  0  0  0  0  0  0
   -2.1250    1.5833    0.0000 C   0  0  0  0  0  0  0  0  0  0  0  0
    1.7667    0.8333    0.0000 N   0  0  0  0  0  0  0  0  0  0  0  0
   -0.1750    1.9583    0.0000 C   0  0  0  0  0  0  0  0  0  0  0  0
    1.1167    1.9583    0.0000 S   0  0  0  0  0  0  0  0  0  0  0  0
   -2.1250    0.8333    0.0000 C   0  0  0  0  0  0  0  0  0  0  0  0
    3.0667    0.8333    0.0000 C   0  0  0  0  0  0  0  0  0  0  0  0
    0.4667    1.5833    0.0000 C   0  0  0  0  0  0  0  0  0  0  0  0
   -0.8250    0.8333    0.0000 C   0  0  0  0  0  0  0  0  0  0  0  0
   -0.1750    2.7083    0.0000 O   0  0  0  0  0  0  0  0  0  0  0  0
   -1.4750    0.4583    0.0000 C   0  0  0  0  0  0  0  0  0  0  0  0
    2.4167    0.4583    0.0000 C   0  0  0  0  0  0  0  0  0  0  0  0
   -2.7750    1.9583    0.0000 O   0  0  0  0  0  0  0  0  0  0  0  0
    3.7167    1.9583    0.0000 O   0  0  0  0  0  0  0  0  0  0  0  0
   -2.7750    0.4583    0.0000 O   0  0  0  0  0  0  0  0  0  0  0  0
  2  1  1  0  0  0  0
  3  1  2  0  0  0  0
  4  8  1  0  0  0  0
  5  4  2  0  0  0  0
  6  5  1  0  0  0  0
  7  2  2  0  0  0  0
  8 12  1  0  0  0  0
  9  2  1  0  0  0  0
 10 15  1  0  0  0  0
 11  3  1  0  0  0  0
 12  9  1  0  0  0  0
 13  4  1  0  0  0  0
 14  8  2  0  0  0  0
 15 13  2  0  0  0  0
 16 11  2  0  0  0  0
 17  6  1  0  0  0  0
 18  3  1  0  0  0  0
 19 10  1  0  0  0  0
  7 16  1  0  0  0  0
 10  6  2  0  0  0  0
M  END
> <#>
1390

> <PLATE>
LAT018

> <ROW>
F

> <COL>
5

> <COORD>
F05

> <LATID>
LAT018F05

> <Supplier>
Chembridge

> <Suplier_CAT#>
7941854

> <Name>
Novel

> <Concentration_(mM)>
2.5

> <IC50_(µM)>
inactive

> <Yeast_Active?>
-

> <Pubchem_CID>
NULL

$$$$
