
  -ISIS-  08130814242D

 16 17  0  0  0  0  0  0  0  0999 V2000
    5.9667  -10.5250    0.0000 S   0  0  3  0  0  0  0  0  0  0  0  0
    7.0542  -10.5250    0.0000 N   0  0  0  0  0  0  0  0  0  0  0  0
    7.8792  -10.5167    0.0000 C   0  0  0  0  0  0  0  0  0  0  0  0
    8.3667  -11.1792    0.0000 N   0  0  0  0  0  0  0  0  0  0  0  0
    5.2167  -10.5250    0.0000 C   0  0  0  0  0  0  0  0  0  0  0  0
    8.3625   -9.8417    0.0000 S   0  0  0  0  0  0  0  0  0  0  0  0
    6.3417   -9.8750    0.0000 O   0  0  0  0  0  0  0  0  0  0  0  0
    6.3417  -11.1750    0.0000 O   0  0  0  0  0  0  0  0  0  0  0  0
    9.1542  -10.9167    0.0000 C   0  0  0  0  0  0  0  0  0  0  0  0
    9.1417  -10.0917    0.0000 C   0  0  0  0  0  0  0  0  0  0  0  0
    4.8375  -11.1750    0.0000 C   0  0  0  0  0  0  0  0  0  0  0  0
    4.8375   -9.8667    0.0000 C   0  0  0  0  0  0  0  0  0  0  0  0
    3.7042  -10.5250    0.0000 C   0  0  0  0  0  0  0  0  0  0  0  0
    2.9542  -10.5250    0.0000 N   0  0  0  0  0  0  0  0  0  0  0  0
    4.0792   -9.8667    0.0000 C   0  0  0  0  0  0  0  0  0  0  0  0
    4.0875  -11.1750    0.0000 C   0  0  0  0  0  0  0  0  0  0  0  0
  2  1  1  0  0  0  0
  3  2  1  0  0  0  0
  4  3  2  0  0  0  0
  5  1  1  0  0  0  0
  6  3  1  0  0  0  0
  7  1  2  0  0  0  0
  8  1  2  0  0  0  0
  9  4  1  0  0  0  0
 10  6  1  0  0  0  0
 11  5  1  0  0  0  0
 12  5  2  0  0  0  0
 13 15  2  0  0  0  0
 14 13  1  0  0  0  0
 15 12  1  0  0  0  0
 16 11  2  0  0  0  0
 13 16  1  0  0  0  0
  9 10  2  0  0  0  0
M  END
> <#>
117

> <PLATE>
LAT002

> <ROW>
E

> <COL>
6

> <COORD>
E06

> <LATID>
LAT002E06

> <Supplier>
Microsource

> <Suplier_CAT#>
01500553

> <Name>
Sulfathiazole

> <Concentration_(mM)>
2.5

> <IC50_(µM)>
2.7

> <Yeast_Active?>
-

> <Pubchem_CID>
5340

> <Description>
Antibacterial

$$$$
