
  -ISIS-  08130814242D

 23 26  0  0  0  0  0  0  0  0999 V2000
    6.2417   -4.0292    0.0000 C   0  0  0  0  0  0  0  0  0  0  0  0
    6.2417   -4.7792    0.0000 C   0  0  0  0  0  0  0  0  0  0  0  0
    7.5375   -4.0375    0.0000 C   0  0  0  0  0  0  0  0  0  0  0  0
    6.8917   -3.6542    0.0000 C   0  0  3  0  0  0  0  0  0  0  0  0
    7.5375   -4.7875    0.0000 C   0  0  0  0  0  0  0  0  0  0  0  0
    6.8792   -5.1542    0.0000 O   0  0  0  0  0  0  0  0  0  0  0  0
    4.9417   -4.0292    0.0000 C   0  0  0  0  0  0  0  0  0  0  0  0
    4.9417   -4.7792    0.0000 N   0  0  0  0  0  0  0  0  0  0  0  0
    5.5917   -5.1542    0.0000 N   0  0  0  0  0  0  0  0  0  0  0  0
    6.8917   -2.9125    0.0000 C   0  0  0  0  0  0  0  0  0  0  0  0
    8.1917   -3.6667    0.0000 C   0  0  0  0  0  0  0  0  0  0  0  0
    8.8375   -4.0417    0.0000 N   0  0  0  0  0  0  0  0  0  0  0  0
    4.1167   -4.0292    0.0000 C   0  0  0  0  0  0  0  0  0  0  0  0
    5.6042   -2.5625    0.0000 S   0  0  0  0  0  0  0  0  0  0  0  0
    6.1250   -3.2042    0.0000 C   0  0  0  0  0  0  0  0  0  0  0  0
    6.8542   -2.0917    0.0000 C   0  0  0  0  0  0  0  0  0  0  0  0
    6.0542   -1.8750    0.0000 C   0  0  0  0  0  0  0  0  0  0  0  0
    8.1792   -5.1667    0.0000 N   0  0  0  0  0  0  0  0  0  0  0  0
    2.8917   -3.3167    0.0000 N   0  0  0  0  0  0  0  0  0  0  0  0
    3.7042   -3.3167    0.0000 C   0  0  0  0  0  0  0  0  0  0  0  0
    3.7042   -4.7375    0.0000 C   0  0  0  0  0  0  0  0  0  0  0  0
    2.4875   -4.0250    0.0000 C   0  0  0  0  0  0  0  0  0  0  0  0
    2.8917   -4.7375    0.0000 C   0  0  0  0  0  0  0  0  0  0  0  0
  2  1  2  0  0  0  0
  3  4  1  0  0  0  0
  4  1  1  0  0  0  0
  5  3  2  0  0  0  0
  6  2  1  0  0  0  0
  7  1  1  0  0  0  0
  8  7  2  0  0  0  0
  9  2  1  0  0  0  0
 10  4  1  0  0  0  0
 11  3  1  0  0  0  0
 12 11  3  0  0  0  0
 13  7  1  0  0  0  0
 14 15  1  0  0  0  0
 15 10  2  0  0  0  0
 16 10  1  0  0  0  0
 17 16  2  0  0  0  0
 18  5  1  0  0  0  0
 19 20  2  0  0  0  0
 20 13  1  0  0  0  0
 21 13  2  0  0  0  0
 22 23  2  0  0  0  0
 23 21  1  0  0  0  0
  8  9  1  0  0  0  0
  6  5  1  0  0  0  0
 17 14  1  0  0  0  0
 19 22  1  0  0  0  0
M  END
> <#>
1686

> <PLATE>
LAT022

> <ROW>
F

> <COL>
2

> <COORD>
F02

> <LATID>
LAT022F02

> <Supplier>
Chembridge

> <Suplier_CAT#>
7751704

> <Name>
Novel

> <Concentration_(mM)>
2.5

> <IC50_(µM)>
inactive

> <Yeast_Active?>
-

> <Pubchem_CID>
NULL

$$$$
