
  -ISIS-  08130814242D

 24 26  0  0  0  0  0  0  0  0999 V2000
    3.2792   -3.5792    0.0000 C   0  0  0  0  0  0  0  0  0  0  0  0
   -1.5958    0.2625    0.0000 C   0  0  0  0  0  0  0  0  0  0  0  0
    4.5875   -3.2667    0.0000 C   0  0  0  0  0  0  0  0  0  0  0  0
    2.3792   -2.5542    0.0000 N   0  0  0  0  0  0  0  0  0  0  0  0
   -1.4708   -0.8000    0.0000 N   0  0  0  0  0  0  0  0  0  0  0  0
    5.0500   -2.1042    0.0000 S   0  0  0  0  0  0  0  0  0  0  0  0
   -0.7208    0.8958    0.0000 C   0  0  0  0  0  0  0  0  0  0  0  0
    5.2042   -4.1875    0.0000 C   0  0  0  0  0  0  0  0  0  0  0  0
    2.8500   -4.9000    0.0000 O   0  0  0  0  0  0  0  0  0  0  0  0
   -2.5458    0.6958    0.0000 O   0  0  0  0  0  0  0  0  0  0  0  0
    6.3500   -2.0667    0.0000 C   0  0  0  0  0  0  0  0  0  0  0  0
   -0.8458    1.9458    0.0000 C   0  0  0  0  0  0  0  0  0  0  0  0
    6.9792   -2.9875    0.0000 C   0  0  0  0  0  0  0  0  0  0  0  0
    1.4167   -2.1042    0.0000 C   0  0  0  0  0  0  0  0  0  0  0  0
   -0.5125   -1.2292    0.0000 C   0  0  0  0  0  0  0  0  0  0  0  0
    0.0167    2.5625    0.0000 C   0  0  0  0  0  0  0  0  0  0  0  0
   -0.0833    3.6125    0.0000 Cl  0  0  0  0  0  0  0  0  0  0  0  0
    1.3000   -1.0500    0.0000 C   0  0  0  0  0  0  0  0  0  0  0  0
    0.3375   -0.6042    0.0000 C   0  0  0  0  0  0  0  0  0  0  0  0
   -0.4000   -2.2792    0.0000 C   0  0  0  0  0  0  0  0  0  0  0  0
    0.5500   -2.7167    0.0000 C   0  0  0  0  0  0  0  0  0  0  0  0
    0.2375    0.4708    0.0000 C   0  0  0  0  0  0  0  0  0  0  0  0
    1.0875    1.0958    0.0000 C   0  0  0  0  0  0  0  0  0  0  0  0
    0.9667    2.1208    0.0000 C   0  0  0  0  0  0  0  0  0  0  0  0
  2  5  1  0  0  0  0
  3  1  1  0  0  0  0
  4  1  1  0  0  0  0
  5 15  1  0  0  0  0
  6  3  1  0  0  0  0
  7  2  1  0  0  0  0
  8  3  2  0  0  0  0
  9  1  2  0  0  0  0
 10  2  2  0  0  0  0
 11  6  1  0  0  0  0
 12  7  1  0  0  0  0
 13  8  1  0  0  0  0
 14  4  1  0  0  0  0
 15 20  1  0  0  0  0
 16 12  2  0  0  0  0
 17 16  1  0  0  0  0
 18 14  2  0  0  0  0
 19 18  1  0  0  0  0
 20 21  2  0  0  0  0
 21 14  1  0  0  0  0
 22  7  2  0  0  0  0
 23 22  1  0  0  0  0
 24 23  2  0  0  0  0
 11 13  2  0  0  0  0
 19 15  2  0  0  0  0
 16 24  1  0  0  0  0
M  END
> <#>
1972

> <PLATE>
LAT025

> <ROW>
D

> <COL>
8

> <COORD>
D08

> <LATID>
LAT025D08

> <Supplier>
Chembridge

> <Suplier_CAT#>
6388679

> <Concentration_(mM)>
2.5

> <IC50_(µM)>
inactive

> <Yeast_Active?>
-

> <Pubchem_CID>
2278991

$$$$
