
  -ISIS-  08130814242D

 33 36  0  0  0  0  0  0  0  0999 V2000
   -0.8708    0.0208    0.0000 N   0  0  3  0  0  0  0  0  0  0  0  0
   -1.5125   -0.4542    0.0000 C   0  0  0  0  0  0  0  0  0  0  0  0
   -1.2333   -1.2167    0.0000 N   0  0  0  0  0  0  0  0  0  0  0  0
   -0.2125   -0.4042    0.0000 C   0  0  0  0  0  0  0  0  0  0  0  0
   -0.4333   -1.2000    0.0000 N   0  0  0  0  0  0  0  0  0  0  0  0
   -2.2958   -0.2875    0.0000 C   0  0  0  0  0  0  0  0  0  0  0  0
    0.5542   -0.1500    0.0000 S   0  0  0  0  0  0  0  0  0  0  0  0
   -2.8208   -0.8792    0.0000 C   0  0  0  0  0  0  0  0  0  0  0  0
   -0.8708    0.8333    0.0000 C   0  0  0  0  0  0  0  0  0  0  0  0
   -3.6000   -0.6792    0.0000 C   0  0  0  0  0  0  0  0  0  0  0  0
    1.9167   -0.3875    0.0000 C   0  0  0  0  0  0  0  0  0  0  0  0
   -3.8333    0.0708    0.0000 C   0  0  0  0  0  0  0  0  0  0  0  0
    2.5292   -0.9000    0.0000 N   0  0  0  0  0  0  0  0  0  0  0  0
   -2.5125    0.4958    0.0000 C   0  0  0  0  0  0  0  0  0  0  0  0
    2.0667    0.3958    0.0000 O   0  0  0  0  0  0  0  0  0  0  0  0
   -3.2958    0.6625    0.0000 C   0  0  0  0  0  0  0  0  0  0  0  0
    1.1542   -0.6542    0.0000 C   0  0  0  0  0  0  0  0  0  0  0  0
    3.2875   -0.6292    0.0000 C   0  0  0  0  0  0  0  0  0  0  0  0
   -4.1458   -1.2667    0.0000 O   0  0  0  0  0  0  0  0  0  0  0  0
   -4.6125    0.2458    0.0000 O   0  0  0  0  0  0  0  0  0  0  0  0
    3.8875   -1.1500    0.0000 C   0  0  0  0  0  0  0  0  0  0  0  0
   -0.1708    1.2458    0.0000 C   0  0  0  0  0  0  0  0  0  0  0  0
   -1.5708    1.2458    0.0000 C   0  0  0  0  0  0  0  0  0  0  0  0
   -3.8958   -2.0292    0.0000 C   0  0  0  0  0  0  0  0  0  0  0  0
   -4.8500    1.0208    0.0000 C   0  0  0  0  0  0  0  0  0  0  0  0
    3.7292   -1.9292    0.0000 C   0  0  0  0  0  0  0  0  0  0  0  0
    4.6375   -0.8792    0.0000 C   0  0  0  0  0  0  0  0  0  0  0  0
   -1.5708    2.0500    0.0000 C   0  0  0  0  0  0  0  0  0  0  0  0
   -0.1708    2.0333    0.0000 C   0  0  0  0  0  0  0  0  0  0  0  0
    5.2375   -1.4167    0.0000 C   0  0  0  0  0  0  0  0  0  0  0  0
    4.3500   -2.4375    0.0000 C   0  0  0  0  0  0  0  0  0  0  0  0
   -0.8708    2.4458    0.0000 C   0  0  0  0  0  0  0  0  0  0  0  0
    5.0875   -2.2000    0.0000 C   0  0  0  0  0  0  0  0  0  0  0  0
  2  1  1  0  0  0  0
  3  2  2  0  0  0  0
  4  1  1  0  0  0  0
  5  4  2  0  0  0  0
  6  2  1  0  0  0  0
  7  4  1  0  0  0  0
  8  6  1  0  0  0  0
  9  1  1  0  0  0  0
 10  8  2  0  0  0  0
 11 17  1  0  0  0  0
 12 16  2  0  0  0  0
 13 11  1  0  0  0  0
 14  6  2  0  0  0  0
 15 11  2  0  0  0  0
 16 14  1  0  0  0  0
 17  7  1  0  0  0  0
 18 13  1  0  0  0  0
 19 10  1  0  0  0  0
 20 12  1  0  0  0  0
 21 18  1  0  0  0  0
 22  9  2  0  0  0  0
 23  9  1  0  0  0  0
 24 19  1  0  0  0  0
 25 20  1  0  0  0  0
 26 21  1  0  0  0  0
 27 21  2  0  0  0  0
 28 23  2  0  0  0  0
 29 22  1  0  0  0  0
 30 27  1  0  0  0  0
 31 26  2  0  0  0  0
 32 28  1  0  0  0  0
 33 30  2  0  0  0  0
  3  5  1  0  0  0  0
 32 29  2  0  0  0  0
 10 12  1  0  0  0  0
 31 33  1  0  0  0  0
M  END
> <#>
1718

> <PLATE>
LAT022

> <ROW>
F

> <COL>
6

> <COORD>
F06

> <LATID>
LAT022F06

> <Supplier>
Chembridge

> <Suplier_CAT#>
6555792

> <Name>
Novel

> <Concentration_(mM)>
2.5

> <IC50_(µM)>
inactive 

> <Yeast_Active?>
-

> <Pubchem_CID>
1035128

$$$$
