
  -ISIS-  08130814242D

 21 22  0  0  0  0  0  0  0  0999 V2000
    2.1667   -0.8542    0.0000 C   0  0  0  0  0  0  0  0  0  0  0  0
    2.1667   -2.1167    0.0000 C   0  0  0  0  0  0  0  0  0  0  0  0
    1.0875   -0.2375    0.0000 C   0  0  3  0  0  0  0  0  0  0  0  0
    0.0042   -2.1167    0.0000 C   0  0  3  0  0  0  0  0  0  0  0  0
    0.0042   -0.8542    0.0000 C   0  0  3  0  0  0  0  0  0  0  0  0
    1.0875   -2.7500    0.0000 C   0  0  0  0  0  0  0  0  0  0  0  0
    3.2667   -0.2042    0.0000 C   0  0  0  0  0  0  0  0  0  0  0  0
   -1.0958   -0.2042    0.0000 C   0  0  0  0  0  0  0  0  0  0  0  0
    1.0875    1.0208    0.0000 C   0  0  0  0  0  0  0  0  0  0  0  0
    4.3500   -0.8375    0.0000 O   0  0  0  0  0  0  0  0  0  0  0  0
   -1.0833    1.0625    0.0000 O   0  0  0  0  0  0  0  0  0  0  0  0
    3.2667   -2.7667    0.0000 O   0  0  0  0  0  0  0  0  0  0  0  0
   -0.3833   -3.3042    0.0000 O   0  0  0  0  0  0  0  0  0  0  0  0
   -1.2500   -2.1167    0.0000 C   0  0  0  0  0  0  0  0  0  0  0  0
    3.2667    1.0625    0.0000 C   0  0  0  0  0  0  0  0  0  0  0  0
   -2.2000   -0.8500    0.0000 C   0  0  0  0  0  0  0  0  0  0  0  0
    0.0042    1.6458    0.0000 C   0  0  0  0  0  0  0  0  0  0  0  0
    2.1667    1.6458    0.0000 C   0  0  0  0  0  0  0  0  0  0  0  0
    2.1667    2.9000    0.0000 C   0  0  0  0  0  0  0  0  0  0  0  0
    0.0042    2.9000    0.0000 C   0  0  0  0  0  0  0  0  0  0  0  0
    1.0875    3.5208    0.0000 C   0  0  0  0  0  0  0  0  0  0  0  0
  2  1  2  0  0  0  0
  3  1  1  0  0  0  0
  4  5  1  0  0  0  0
  5  3  1  0  0  0  0
  6  2  1  0  0  0  0
  7  1  1  0  0  0  0
  8  5  1  0  0  0  0
  9  3  1  0  0  0  0
 10  7  2  0  0  0  0
 11  8  2  0  0  0  0
 12  2  1  0  0  0  0
 13  4  1  0  0  0  0
 14  4  1  0  0  0  0
 15  7  1  0  0  0  0
 16  8  1  0  0  0  0
 17  9  1  0  0  0  0
 18  9  2  0  0  0  0
 19 18  1  0  0  0  0
 20 17  2  0  0  0  0
 21 19  2  0  0  0  0
  4  6  1  0  0  0  0
 20 21  1  0  0  0  0
M  END
> <#>
2061

> <PLATE>
LAT026

> <ROW>
E

> <COL>
9

> <COORD>
E09

> <LATID>
LAT026E09

> <Supplier>
Chembridge

> <Suplier_CAT#>
5648152

> <Sec_Name>
199_E02

> <Concentration_(mM)>
2.5

> <IC50_(µM)>
inactive

> <Yeast_Active?>
-

> <Pubchem_CID>
614870

$$$$
