
  -ISIS-  08130814242D

 23 25  0  0  0  0  0  0  0  0999 V2000
   -4.4208   -1.8042    0.0000 C   0  0  0  0  0  0  0  0  0  0  0  0
   -4.1000   -1.9875    0.0000 C   0  0  0  0  0  0  0  0  0  0  0  0
   -4.4208   -1.4292    0.0000 C   0  0  0  0  0  0  0  0  0  0  0  0
   -4.1000   -1.2292    0.0000 N   0  0  0  0  0  0  0  0  0  0  0  0
   -3.7625   -1.8042    0.0000 O   0  0  0  0  0  0  0  0  0  0  0  0
   -3.7625   -1.4042    0.0000 C   0  0  0  0  0  0  0  0  0  0  0  0
   -4.7458   -1.9875    0.0000 C   0  0  0  0  0  0  0  0  0  0  0  0
   -4.7458   -1.2292    0.0000 C   0  0  0  0  0  0  0  0  0  0  0  0
   -5.0625   -1.8042    0.0000 C   0  0  0  0  0  0  0  0  0  0  0  0
   -5.0625   -1.4042    0.0000 C   0  0  0  0  0  0  0  0  0  0  0  0
   -3.4458   -1.2042    0.0000 C   0  0  0  0  0  0  0  0  0  0  0  0
   -3.4625   -0.8500    0.0000 C   0  0  0  0  0  0  0  0  0  0  0  0
   -4.1000   -2.3667    0.0000 O   0  0  0  0  0  0  0  0  0  0  0  0
   -3.1458   -0.6500    0.0000 C   0  0  0  0  0  0  0  0  0  0  0  0
   -5.3833   -2.0042    0.0000 O   0  0  0  0  0  0  0  0  0  0  0  0
   -5.3833   -1.2042    0.0000 O   0  0  0  0  0  0  0  0  0  0  0  0
   -3.1458   -0.2875    0.0000 C   0  0  0  0  0  0  0  0  0  0  0  0
   -2.8000   -0.8292    0.0000 C   0  0  0  0  0  0  0  0  0  0  0  0
   -5.7208   -1.3875    0.0000 C   0  0  0  0  0  0  0  0  0  0  0  0
   -5.7208   -1.8500    0.0000 C   0  0  0  0  0  0  0  0  0  0  0  0
   -2.5000   -0.6500    0.0000 C   0  0  0  0  0  0  0  0  0  0  0  0
   -2.8208   -0.0875    0.0000 C   0  0  0  0  0  0  0  0  0  0  0  0
   -2.5000   -0.2667    0.0000 C   0  0  0  0  0  0  0  0  0  0  0  0
  2  1  1  0  0  0  0
  3  1  2  0  0  0  0
  4  3  1  0  0  0  0
  5  2  1  0  0  0  0
  6  4  2  0  0  0  0
  7  1  1  0  0  0  0
  8  3  1  0  0  0  0
  9  7  2  0  0  0  0
 10  9  1  0  0  0  0
 11  6  1  0  0  0  0
 12 11  2  0  0  0  0
 13  2  2  0  0  0  0
 14 12  1  0  0  0  0
 15  9  1  0  0  0  0
 16 10  1  0  0  0  0
 17 14  2  0  0  0  0
 18 14  1  0  0  0  0
 19 16  1  0  0  0  0
 20 15  1  0  0  0  0
 21 18  2  0  0  0  0
 22 17  1  0  0  0  0
 23 21  1  0  0  0  0
 10  8  2  0  0  0  0
  5  6  1  0  0  0  0
 22 23  2  0  0  0  0
M  END
> <#>
561

> <PLATE>
LAT008

> <ROW>
A

> <COL>
2

> <COORD>
A02

> <LATID>
LAT008A02

> <Supplier>
Chembridge

> <Suplier_CAT#>
5474466

> <Name>
Novel

> <Sec_Name>
136_G10

> <Concentration_(mM)>
2.5

> <IC50_(µM)>
14

> <Yeast_Active?>
-

> <Pubchem_CID>
2847807

$$$$
