
  -ISIS-  08130814242D

 54 58  0  0  0  0  0  0  0  0999 V2000
   10.1542   -1.3292    0.0000 C   0  0  1  0  0  0  0  0  0  0  0  0
   10.8542   -2.5667    0.0000 C   0  0  2  0  0  0  0  0  0  0  0  0
   10.1542   -2.1542    0.0000 O   0  0  0  0  0  0  0  0  0  0  0  0
    9.4375   -1.7375    0.0000 O   0  0  0  0  0  0  0  0  0  0  0  0
    3.7292   -1.7042    0.0000 O   0  0  0  0  0  0  0  0  0  0  0  0
    3.0250   -1.2917    0.0000 C   0  0  1  0  0  0  0  0  0  0  0  0
    7.2917   -1.3125    0.0000 C   0  0  0  0  0  0  0  0  0  0  0  0
    8.7250   -1.3167    0.0000 C   0  0  2  0  0  0  0  0  0  0  0  0
    4.4417   -1.2917    0.0000 C   0  0  1  0  0  0  0  0  0  0  0  0
   10.2667   -3.1542    0.0000 O   0  0  0  0  0  0  0  0  0  0  0  0
    8.0042   -1.7250    0.0000 C   0  0  1  0  0  0  0  0  0  0  0  0
    2.3042   -1.7042    0.0000 C   0  0  2  0  0  0  0  0  0  0  0  0
    6.5792   -1.7167    0.0000 C   0  0  2  0  0  0  0  0  0  0  0  0
    5.1542   -1.7042    0.0000 C   0  0  2  0  0  0  0  0  0  0  0  0
   10.6417   -3.8917    0.0000 C   0  0  2  0  0  0  0  0  0  0  0  0
    5.8667   -1.3042    0.0000 C   0  0  2  0  0  0  0  0  0  0  0  0
   10.6292   -5.3125    0.0000 O   0  0  0  0  0  0  0  0  0  0  0  0
   10.8667   -0.9167    0.0000 C   0  0  0  0  0  0  0  0  0  0  0  0
    1.5917   -1.2917    0.0000 C   0  0  0  0  0  0  0  0  0  0  0  0
   11.0500   -4.6042    0.0000 C   0  0  3  0  0  0  0  0  0  0  0  0
    3.0250   -0.4667    0.0000 C   0  0  1  0  0  0  0  0  0  0  0  0
    4.4417   -0.4667    0.0000 C   0  0  2  0  0  0  0  0  0  0  0  0
    8.7292   -0.4875    0.0000 C   0  0  2  0  0  0  0  0  0  0  0  0
   10.1667   -0.5042    0.0000 C   0  0  1  0  0  0  0  0  0  0  0  0
   11.5792   -1.3375    0.0000 C   0  0  0  0  0  0  0  0  0  0  0  0
   11.8542   -6.0292    0.0000 C   0  0  1  0  0  0  0  0  0  0  0  0
   11.0292   -6.0167    0.0000 C   0  0  2  0  0  0  0  0  0  0  0  0
    3.7292   -0.0542    0.0000 C   0  0  0  0  0  0  0  0  0  0  0  0
   11.5792   -2.1625    0.0000 C   0  0  1  0  0  0  0  0  0  0  0  0
    9.4542   -0.0792    0.0000 C   0  0  0  0  0  0  0  0  0  0  0  0
   11.5917   -2.9500    0.0000 C   0  0  0  0  0  0  0  0  0  0  0  0
    7.3042   -0.4792    0.0000 O   0  0  0  0  0  0  0  0  0  0  0  0
   11.4625   -3.7667    0.0000 C   0  0  0  0  0  0  0  0  0  0  0  0
    1.5917   -0.4667    0.0000 O   0  0  0  0  0  0  0  0  0  0  0  0
   12.2667   -5.3250    0.0000 C   0  0  0  0  0  0  0  0  0  0  0  0
   11.8667   -4.6042    0.0000 C   0  0  0  0  0  0  0  0  0  0  0  0
    5.8667   -0.4750    0.0000 O   0  0  0  0  0  0  0  0  0  0  0  0
    0.8792   -1.7042    0.0000 O   0  0  0  0  0  0  0  0  0  0  0  0
   12.5667   -6.4417    0.0000 O   0  0  0  0  0  0  0  0  0  0  0  0
    2.3042   -2.5292    0.0000 C   0  0  0  0  0  0  0  0  0  0  0  0
   12.3750   -2.3750    0.0000 O   0  0  0  0  0  0  0  0  0  0  0  0
    8.0042   -2.5500    0.0000 C   0  0  0  0  0  0  0  0  0  0  0  0
    6.5750   -2.5417    0.0000 C   0  0  0  0  0  0  0  0  0  0  0  0
    5.1500   -2.5292    0.0000 C   0  0  0  0  0  0  0  0  0  0  0  0
    9.9250   -4.3042    0.0000 C   0  0  0  0  0  0  0  0  0  0  0  0
   11.6292   -6.8292    0.0000 C   0  0  0  0  0  0  0  0  0  0  0  0
    2.3042   -0.0542    0.0000 C   0  0  0  0  0  0  0  0  0  0  0  0
    5.1542   -0.0542    0.0000 C   0  0  0  0  0  0  0  0  0  0  0  0
    8.0167   -0.0667    0.0000 C   0  0  0  0  0  0  0  0  0  0  0  0
   10.7500    0.0833    0.0000 C   0  0  0  0  0  0  0  0  0  0  0  0
   10.6167   -6.7292    0.0000 C   0  0  0  0  0  0  0  0  0  0  0  0
    1.5917   -2.9417    0.0000 C   0  0  0  0  0  0  0  0  0  0  0  0
    8.7125   -2.9667    0.0000 C   0  0  0  0  0  0  0  0  0  0  0  0
   12.2167   -7.4125    0.0000 C   0  0  0  0  0  0  0  0  0  0  0  0
  2  3  1  0  0  0  0
  3  1  1  0  0  0  0
  4  1  1  0  0  0  0
  5  9  1  0  0  0  0
  6  5  1  0  0  0  0
  7 11  1  0  0  0  0
  8  4  1  6  0  0  0
  9 14  1  6  0  0  0
  2 10  1  1  0  0  0
 11  8  1  0  0  0  0
  6 12  1  1  0  0  0
 13  7  1  0  0  0  0
 14 16  1  0  0  0  0
 15 10  1  0  0  0  0
 16 13  1  0  0  0  0
 17 20  1  0  0  0  0
  1 18  1  1  0  0  0
 19 12  1  0  0  0  0
 15 20  1  1  0  0  0
 21 28  1  0  0  0  0
 22  9  1  0  0  0  0
 23 30  1  0  0  0  0
 24  1  1  0  0  0  0
 25 18  2  0  0  0  0
 26 35  1  0  0  0  0
 27 17  1  0  0  0  0
 28 22  1  0  0  0  0
 29 25  1  0  0  0  0
 30 24  1  0  0  0  0
 31  2  1  0  0  0  0
 32  7  2  0  0  0  0
 33 31  1  0  0  0  0
 34 19  2  0  0  0  0
 35 36  1  0  0  0  0
 36 20  1  0  0  0  0
 16 37  1  6  0  0  0
 38 19  1  0  0  0  0
 26 39  1  1  0  0  0
 12 40  1  1  0  0  0
 29 41  1  1  0  0  0
 11 42  1  1  0  0  0
 13 43  1  1  0  0  0
 14 44  1  6  0  0  0
 15 45  1  6  0  0  0
 26 46  1  6  0  0  0
 21 47  1  6  0  0  0
 22 48  1  6  0  0  0
 23 49  1  1  0  0  0
 24 50  1  1  0  0  0
 27 51  1  6  0  0  0
 52 40  1  0  0  0  0
 53 42  1  0  0  0  0
 54 46  1  0  0  0  0
  8 23  1  0  0  0  0
 29  2  1  0  0  0  0
 33 15  1  0  0  0  0
 26 27  1  0  0  0  0
  6 21  1  0  0  0  0
M  END
> <#>
2080

> <PLATE>
LAT026

> <ROW>
H

> <COL>
11

> <COORD>
H11

> <LATID>
LAT026H11

> <Supplier>
Microsource

> <Suplier_CAT#>
1502035

> <Name>
Narasin

> <Concentration_(mM)>
2.5

> <IC50_(µM)>
0.86

> <Yeast_Active?>
+

> <Pubchem_CID>
65452

$$$$
