
  -ISIS-  08130814242D

 18 18  0  0  0  0  0  0  0  0999 V2000
   -2.5500    1.0208    0.0000 C   0  0  0  0  0  0  0  0  0  0  0  0
   -1.9125   -0.0792    0.0000 C   0  0  0  0  0  0  0  0  0  0  0  0
   -2.5500    0.3000    0.0000 C   0  0  0  0  0  0  0  0  0  0  0  0
   -1.2708    1.0208    0.0000 C   0  0  0  0  0  0  0  0  0  0  0  0
   -1.9125    1.4000    0.0000 C   0  0  0  0  0  0  0  0  0  0  0  0
   -1.2708    0.3000    0.0000 C   0  0  0  0  0  0  0  0  0  0  0  0
   -3.2125    1.4000    0.0000 C   0  0  3  0  0  0  0  0  0  0  0  0
   -1.9125   -0.8167    0.0000 C   0  0  3  0  0  0  0  0  0  0  0  0
   -0.6333    1.4000    0.0000 C   0  0  0  0  0  0  0  0  0  0  0  0
   -0.6333    2.1458    0.0000 O   0  0  0  0  0  0  0  0  0  0  0  0
   -3.2125   -0.0792    0.0000 O   0  0  0  0  0  0  0  0  0  0  0  0
   -3.8500    1.7625    0.0000 C   0  0  0  0  0  0  0  0  0  0  0  0
   -2.6500   -0.8167    0.0000 C   0  0  0  0  0  0  0  0  0  0  0  0
   -1.1708   -0.8167    0.0000 C   0  0  0  0  0  0  0  0  0  0  0  0
   -1.9125   -1.5542    0.0000 C   0  0  0  0  0  0  0  0  0  0  0  0
   -2.8333    2.0458    0.0000 C   0  0  0  0  0  0  0  0  0  0  0  0
   -3.5708    0.7458    0.0000 C   0  0  0  0  0  0  0  0  0  0  0  0
    0.0292    1.0208    0.0000 C   0  0  0  0  0  0  0  0  0  0  0  0
  2  3  2  0  0  0  0
  3  1  1  0  0  0  0
  4  5  1  0  0  0  0
  5  1  2  0  0  0  0
  6  4  2  0  0  0  0
  7  1  1  0  0  0  0
  8  2  1  0  0  0  0
  9  4  1  0  0  0  0
 10  9  2  0  0  0  0
 11  3  1  0  0  0  0
 12  7  1  0  0  0  0
 13  8  1  0  0  0  0
 14  8  1  0  0  0  0
 15  8  1  0  0  0  0
 16  7  1  0  0  0  0
 17  7  1  0  0  0  0
 18  9  1  0  0  0  0
  2  6  1  0  0  0  0
M  END
> <#>
1128

> <PLATE>
LAT015

> <ROW>
H

> <COL>
2

> <COORD>
H02

> <LATID>
LAT015H02

> <Supplier>
Chembridge

> <Suplier_CAT#>
5223550

> <Name>
Novel

> <Concentration_(mM)>
2.5

> <IC50_(µM)>
inactive

> <Yeast_Active?>
-

> <Pubchem_CID>
616296

$$$$
