
  -ISIS-  08130814242D

 21 22  0  0  0  0  0  0  0  0999 V2000
    1.3500   -1.4292    0.0000 S   0  0  3  0  0  0  0  0  0  0  0  0
    2.2750   -0.9750    0.0000 N   0  0  0  0  0  0  0  0  0  0  0  0
    2.9875    0.2583    0.0000 N   0  0  0  0  0  0  0  0  0  0  0  0
    2.2750   -0.1500    0.0000 C   0  0  0  0  0  0  0  0  0  0  0  0
    2.2750    1.5000    0.0000 N   0  0  0  0  0  0  0  0  0  0  0  0
    2.9875    1.0833    0.0000 C   0  0  0  0  0  0  0  0  0  0  0  0
    1.5667    1.0833    0.0000 C   0  0  0  0  0  0  0  0  0  0  0  0
    1.5667    0.2583    0.0000 C   0  0  0  0  0  0  0  0  0  0  0  0
    0.0542   -1.4417    0.0000 C   0  0  0  0  0  0  0  0  0  0  0  0
    1.5625   -2.2167    0.0000 O   0  0  0  0  0  0  0  0  0  0  0  0
    1.1917   -0.5917    0.0000 O   0  0  0  0  0  0  0  0  0  0  0  0
   -0.3750   -2.1375    0.0000 C   0  0  0  0  0  0  0  0  0  0  0  0
   -0.3208   -0.7167    0.0000 C   0  0  0  0  0  0  0  0  0  0  0  0
    3.7042    1.4958    0.0000 O   0  0  0  0  0  0  0  0  0  0  0  0
   -1.6833   -1.4292    0.0000 C   0  0  0  0  0  0  0  0  0  0  0  0
    0.8500    1.4958    0.0000 O   0  0  0  0  0  0  0  0  0  0  0  0
   -2.7458   -1.4292    0.0000 N   0  0  0  0  0  0  0  0  0  0  0  0
   -1.2583   -2.1292    0.0000 C   0  0  0  0  0  0  0  0  0  0  0  0
   -1.3375   -0.7167    0.0000 C   0  0  0  0  0  0  0  0  0  0  0  0
    4.4167    1.0750    0.0000 C   0  0  0  0  0  0  0  0  0  0  0  0
    0.8417    2.3208    0.0000 C   0  0  0  0  0  0  0  0  0  0  0  0
  2  1  1  0  0  0  0
  3  4  2  0  0  0  0
  4  2  1  0  0  0  0
  5  7  1  0  0  0  0
  6  3  1  0  0  0  0
  7  8  2  0  0  0  0
  8  4  1  0  0  0  0
  9  1  1  0  0  0  0
 10  1  2  0  0  0  0
 11  1  2  0  0  0  0
 12  9  1  0  0  0  0
 13  9  2  0  0  0  0
 14  6  1  0  0  0  0
 15 19  2  0  0  0  0
 16  7  1  0  0  0  0
 17 15  1  0  0  0  0
 18 12  2  0  0  0  0
 19 13  1  0  0  0  0
 20 14  1  0  0  0  0
 21 16  1  0  0  0  0
 15 18  1  0  0  0  0
  5  6  2  0  0  0  0
M  END
> <#>
94

> <PLATE>
LAT002

> <ROW>
F

> <COL>
3

> <COORD>
F03

> <LATID>
LAT002F03

> <Supplier>
Microsource

> <Suplier_CAT#>
01501144

> <Name>
Sulfadimethoxine

> <Concentration_(mM)>
2.5

> <IC50_(µM)>
4.7

> <Yeast_Active?>
-

> <Pubchem_CID>
5323

> <Description>
Antibacterial

$$$$
