
  -ISIS-  08130814242D

 23 24  0  0  0  0  0  0  0  0999 V2000
   -1.1000   -2.9042    0.0000 C   0  0  0  0  0  0  0  0  0  0  0  0
   -1.1125   -2.0875    0.0000 C   0  0  0  0  0  0  0  0  0  0  0  0
    1.0167   -1.6875    0.0000 C   0  0  0  0  0  0  0  0  0  0  0  0
   -0.4000   -1.6792    0.0000 N   0  0  0  0  0  0  0  0  0  0  0  0
    0.3042   -1.2667    0.0000 N   0  0  0  0  0  0  0  0  0  0  0  0
   -0.3958   -3.3167    0.0000 C   0  0  0  0  0  0  0  0  0  0  0  0
   -1.8208   -1.6792    0.0000 O   0  0  0  0  0  0  0  0  0  0  0  0
    1.0167   -2.5042    0.0000 O   0  0  0  0  0  0  0  0  0  0  0  0
    3.1667   -1.2667    0.0000 C   0  0  0  0  0  0  0  0  0  0  0  0
    4.6000   -1.2667    0.0000 C   0  0  0  0  0  0  0  0  0  0  0  0
    3.8792   -0.0292    0.0000 C   0  0  0  0  0  0  0  0  0  0  0  0
    2.4417   -1.6875    0.0000 O   0  0  0  0  0  0  0  0  0  0  0  0
    1.7375   -1.2667    0.0000 C   0  0  0  0  0  0  0  0  0  0  0  0
    3.1667   -0.4500    0.0000 C   0  0  0  0  0  0  0  0  0  0  0  0
    3.8792   -1.6875    0.0000 C   0  0  0  0  0  0  0  0  0  0  0  0
    4.6000   -0.4500    0.0000 C   0  0  0  0  0  0  0  0  0  0  0  0
    0.3167   -2.9042    0.0000 Cl  0  0  0  0  0  0  0  0  0  0  0  0
   -1.8208   -3.3292    0.0000 C   0  0  0  0  0  0  0  0  0  0  0  0
   -0.3958   -4.1500    0.0000 C   0  0  0  0  0  0  0  0  0  0  0  0
    3.8792    0.7833    0.0000 C   0  0  0  0  0  0  0  0  0  0  0  0
    5.3167   -1.6875    0.0000 C   0  0  0  0  0  0  0  0  0  0  0  0
   -1.8208   -4.1500    0.0000 C   0  0  0  0  0  0  0  0  0  0  0  0
   -1.1000   -4.5667    0.0000 C   0  0  0  0  0  0  0  0  0  0  0  0
  2  1  1  0  0  0  0
  3  5  1  0  0  0  0
  4  2  1  0  0  0  0
  5  4  1  0  0  0  0
  6  1  2  0  0  0  0
  7  2  2  0  0  0  0
  8  3  2  0  0  0  0
  9 12  1  0  0  0  0
 10 15  2  0  0  0  0
 11 14  1  0  0  0  0
 12 13  1  0  0  0  0
 13  3  1  0  0  0  0
 14  9  2  0  0  0  0
 15  9  1  0  0  0  0
 16 10  1  0  0  0  0
 17  6  1  0  0  0  0
 18  1  1  0  0  0  0
 19  6  1  0  0  0  0
 20 11  1  0  0  0  0
 21 10  1  0  0  0  0
 22 18  2  0  0  0  0
 23 22  1  0  0  0  0
 19 23  2  0  0  0  0
 11 16  2  0  0  0  0
M  END
> <#>
1812

> <PLATE>
LAT023

> <ROW>
D

> <COL>
8

> <COORD>
D08

> <LATID>
LAT023D08

> <Supplier>
Chembridge

> <Suplier_CAT#>
5636440

> <Name>
Novel

> <Sec_Name>
194_E10

> <Concentration_(mM)>
2.5

> <IC50_(µM)>
24

> <Yeast_Active?>
-

> <Pubchem_CID>
679531

$$$$
