
  -ISIS-  08130814242D

 11 11  0  0  0  0  0  0  0  0999 V2000
    7.8005   -1.7479    0.0000 C   0  0  0  0  0  0  0  0  0  0  0  0
    6.9082   -1.7479    0.0000 C   0  0  0  0  0  0  0  0  0  0  0  0
    6.4621   -2.5207    0.0000 C   0  0  0  0  0  0  0  0  0  0  0  0
    5.5697   -2.5207    0.0000 C   0  0  0  0  0  0  0  0  0  0  0  0
    5.1236   -1.7479    0.0000 C   0  0  0  0  0  0  0  0  0  0  0  0
    5.5697   -0.9751    0.0000 C   0  0  0  0  0  0  0  0  0  0  0  0
    6.4621   -0.9751    0.0000 C   0  0  0  0  0  0  0  0  0  0  0  0
    8.2467   -0.9751    0.0000 O   0  0  0  0  0  0  0  0  0  0  0  0
    8.2467   -2.5207    0.0000 O   0  0  0  0  0  0  0  0  0  0  0  0
    5.1236   -0.2024    0.0000 C   0  0  0  0  0  0  0  0  0  0  0  0
    5.1236   -3.2935    0.0000 C   0  0  0  0  0  0  0  0  0  0  0  0
  1  2  1  0  0  0  0
  2  3  1  0  0  0  0
  3  4  2  0  0  0  0
  4  5  1  0  0  0  0
  5  6  2  0  0  0  0
  6  7  1  0  0  0  0
  2  7  2  0  0  0  0
  1  8  2  0  0  0  0
  1  9  1  0  0  0  0
  6 10  1  0  0  0  0
  4 11  1  0  0  0  0
M  END
> <#>
507

> <PLATE>
LAT007

> <ROW>
C

> <COL>
5

> <COORD>
C05

> <LATID>
LAT007C05

> <Supplier>
Aldrich

> <Suplier_CAT#>
D149808

> <Name>
3,5-Dimethylbenzoic Acid

> <Concentration_(mM)>
2.5

> <IC50_(µM)>
>100

> <Yeast_Active?>
-

> <Pubchem_CID>
10356

$$$$
