
  -ISIS-  08130814242D

 24 25  0  0  0  0  0  0  0  0999 V2000
    3.5917    3.5583    0.0000 S   0  0  3  0  0  0  0  0  0  0  0  0
    3.9667    2.9083    0.0000 C   0  0  0  0  0  0  0  0  0  0  0  0
    3.5917    2.2583    0.0000 C   0  0  0  0  0  0  0  0  0  0  0  0
    3.9667    1.6083    0.0000 C   0  0  0  0  0  0  0  0  0  0  0  0
    4.7167    2.9083    0.0000 C   0  0  0  0  0  0  0  0  0  0  0  0
    2.8667    3.3583    0.0000 N   0  0  0  0  0  0  0  0  0  0  0  0
    4.7167    1.6083    0.0000 C   0  0  0  0  0  0  0  0  0  0  0  0
    5.0917    2.2583    0.0000 C   0  0  0  0  0  0  0  0  0  0  0  0
    4.2667    3.8708    0.0000 O   0  0  0  0  0  0  0  0  0  0  0  0
    3.3292    4.2542    0.0000 O   0  0  0  0  0  0  0  0  0  0  0  0
    1.0792    4.2167    0.0000 N   0  0  0  0  0  0  0  0  0  0  0  0
    2.3375    3.8958    0.0000 C   0  0  0  0  0  0  0  0  0  0  0  0
    1.6125    3.6958    0.0000 C   0  0  0  0  0  0  0  0  0  0  0  0
    3.5917    0.9583    0.0000 C   0  0  3  0  0  0  0  0  0  0  0  0
    5.0917    3.5583    0.0000 O   0  0  0  0  0  0  0  0  0  0  0  0
    5.0917    0.9583    0.0000 C   0  0  0  0  0  0  0  0  0  0  0  0
    0.3542    4.0292    0.0000 C   0  0  0  0  0  0  0  0  0  0  0  0
    2.8417    0.9583    0.0000 C   0  0  0  0  0  0  0  0  0  0  0  0
    3.9667    0.3083    0.0000 C   0  0  0  0  0  0  0  0  0  0  0  0
    5.8417    3.5583    0.0000 C   0  0  0  0  0  0  0  0  0  0  0  0
    1.4167    2.9708    0.0000 C   0  0  0  0  0  0  0  0  0  0  0  0
    6.2167    4.2000    0.0000 C   0  0  0  0  0  0  0  0  0  0  0  0
    0.1625    3.3083    0.0000 C   0  0  0  0  0  0  0  0  0  0  0  0
    0.6917    2.7750    0.0000 C   0  0  0  0  0  0  0  0  0  0  0  0
  2  1  1  0  0  0  0
  3  2  1  0  0  0  0
  4  3  2  0  0  0  0
  5  2  2  0  0  0  0
  6  1  1  0  0  0  0
  7  8  2  0  0  0  0
  8  5  1  0  0  0  0
  9  1  2  0  0  0  0
 10  1  2  0  0  0  0
 11 13  1  0  0  0  0
 12  6  1  0  0  0  0
 13 12  1  0  0  0  0
 14  4  1  0  0  0  0
 15  5  1  0  0  0  0
 16  7  1  0  0  0  0
 17 11  2  0  0  0  0
 18 14  1  0  0  0  0
 19 14  1  0  0  0  0
 20 15  1  0  0  0  0
 21 13  2  0  0  0  0
 22 20  1  0  0  0  0
 23 24  2  0  0  0  0
 24 21  1  0  0  0  0
  4  7  1  0  0  0  0
 17 23  1  0  0  0  0
M  END
> <#>
1955

> <PLATE>
LAT025

> <ROW>
C

> <COL>
6

> <COORD>
C06

> <LATID>
LAT025C06

> <Supplier>
Chembridge

> <Suplier_CAT#>
7942162

> <Name>
Novel

> <Concentration_(mM)>
2.5

> <IC50_(µM)>
inactive

> <Yeast_Active?>
-

> <Pubchem_CID>
850055

$$$$
