
  -ISIS-  08130814242D

 23 24  0  0  0  0  0  0  0  0999 V2000
    3.5347    1.5135    0.0000 C   0  0  0  0  0  0  0  0  0  0  0  0
    2.4522    0.8885    0.0000 C   0  0  2  0  0  0  0  0  0  0  0  0
    2.4522   -0.3615    0.0000 C   0  0  2  0  0  0  0  0  0  0  0  0
    1.3696   -0.9865    0.0000 C   0  0  1  0  0  0  0  0  0  0  0  0
    0.2871   -0.3615    0.0000 C   0  0  2  0  0  0  0  0  0  0  0  0
    0.2871    0.8885    0.0000 C   0  0  2  0  0  0  0  0  0  0  0  0
    1.3696    1.5135    0.0000 O   0  0  0  0  0  0  0  0  0  0  0  0
   -0.7954    1.5135    0.0000 O   0  0  0  0  0  0  0  0  0  0  0  0
   -1.8780    0.8885    0.0000 C   0  0  2  0  0  0  0  0  0  0  0  0
   -2.9605    1.5135    0.0000 C   0  0  1  0  0  0  0  0  0  0  0  0
   -4.0430    0.8885    0.0000 C   0  0  2  0  0  0  0  0  0  0  0  0
   -4.0430   -0.3615    0.0000 C   0  0  1  0  0  0  0  0  0  0  0  0
   -2.9605   -0.9865    0.0000 C   0  0  2  0  0  0  0  0  0  0  0  0
   -1.8780   -0.3615    0.0000 O   0  0  0  0  0  0  0  0  0  0  0  0
   -2.9605   -2.2365    0.0000 C   0  0  0  0  0  0  0  0  0  0  0  0
   -4.0430   -2.8615    0.0000 O   0  0  0  0  0  0  0  0  0  0  0  0
   -5.1256   -0.9865    0.0000 O   0  0  0  0  0  0  0  0  0  0  0  0
   -5.1256    1.5135    0.0000 O   0  0  0  0  0  0  0  0  0  0  0  0
   -2.9605    2.7635    0.0000 O   0  0  0  0  0  0  0  0  0  0  0  0
   -0.7871   -1.0948    0.0000 O   0  0  0  0  0  0  0  0  0  0  0  0
    1.3696   -2.2365    0.0000 O   0  0  0  0  0  0  0  0  0  0  0  0
    3.5347   -0.9865    0.0000 O   0  0  0  0  0  0  0  0  0  0  0  0
    4.6172    0.8885    0.0000 O   0  0  0  0  0  0  0  0  0  0  0  0
  2  1  1  6  0  0  0
  2  3  1  0  0  0  0
  3  4  1  0  0  0  0
  4  5  1  0  0  0  0
  5  6  1  0  0  0  0
  6  7  1  0  0  0  0
  2  7  1  0  0  0  0
  6  8  1  1  0  0  0
  9  8  1  1  0  0  0
  9 10  1  0  0  0  0
 10 11  1  0  0  0  0
 11 12  1  0  0  0  0
 12 13  1  0  0  0  0
 13 14  1  0  0  0  0
  9 14  1  0  0  0  0
 13 15  1  6  0  0  0
 15 16  1  0  0  0  0
 12 17  1  1  0  0  0
 11 18  1  6  0  0  0
 10 19  1  1  0  0  0
  5 20  1  1  0  0  0
  4 21  1  6  0  0  0
  3 22  1  1  0  0  0
  1 23  1  0  0  0  0
M  END
> <#>
418

> <PLATE>
LAT006

> <ROW>
B

> <COL>
4

> <COORD>
B04

> <LATID>
LAT006B04

> <Supplier>
Nutirional Biochemicals

> <Suplier_CAT#>
Trehalose

> <Name>
D (+) Trehalose Hydrate

> <Concentration_(mM)>
2.5

> <IC50_(µM)>
inactive

> <Yeast_Active?>
-

> <Pubchem_CID>
1115

$$$$
