
  -ISIS-  08130814242D

 19 21  0  0  0  0  0  0  0  0999 V2000
    0.2042    2.3208    0.0000 C   0  0  0  0  0  0  0  0  0  0  0  0
   -0.5958    2.3208    0.0000 C   0  0  3  0  0  0  0  0  0  0  0  0
    0.7292    2.9208    0.0000 N   0  0  0  0  0  0  0  0  0  0  0  0
    1.3500    1.8208    0.0000 N   0  0  0  0  0  0  0  0  0  0  0  0
    1.4500    2.6000    0.0000 C   0  0  0  0  0  0  0  0  0  0  0  0
    0.5875    1.6625    0.0000 C   0  0  0  0  0  0  0  0  0  0  0  0
   -1.3708    2.3208    0.0000 C   0  0  0  0  0  0  0  0  0  0  0  0
   -0.5958    1.5458    0.0000 C   0  0  0  0  0  0  0  0  0  0  0  0
   -0.5958    3.1083    0.0000 O   0  0  0  0  0  0  0  0  0  0  0  0
   -1.7500    3.0000    0.0000 C   0  0  0  0  0  0  0  0  0  0  0  0
   -1.2500    1.1625    0.0000 C   0  0  0  0  0  0  0  0  0  0  0  0
    0.1042    1.1625    0.0000 C   0  0  0  0  0  0  0  0  0  0  0  0
   -1.7500    1.6458    0.0000 C   0  0  0  0  0  0  0  0  0  0  0  0
   -1.2500    0.3833    0.0000 C   0  0  0  0  0  0  0  0  0  0  0  0
    0.1292    0.4000    0.0000 C   0  0  0  0  0  0  0  0  0  0  0  0
   -2.5333    3.0000    0.0000 C   0  0  0  0  0  0  0  0  0  0  0  0
   -2.5125    1.6208    0.0000 C   0  0  0  0  0  0  0  0  0  0  0  0
   -0.5958   -0.0167    0.0000 C   0  0  0  0  0  0  0  0  0  0  0  0
   -2.9333    2.3208    0.0000 C   0  0  0  0  0  0  0  0  0  0  0  0
  2  1  1  0  0  0  0
  3  1  1  0  0  0  0
  4  6  1  0  0  0  0
  5  3  2  0  0  0  0
  6  1  2  0  0  0  0
  7  2  1  0  0  0  0
  8  2  1  0  0  0  0
  9  2  1  0  0  0  0
 10  7  1  0  0  0  0
 11  8  1  0  0  0  0
 12  8  2  0  0  0  0
 13  7  2  0  0  0  0
 14 11  2  0  0  0  0
 15 12  1  0  0  0  0
 16 10  2  0  0  0  0
 17 13  1  0  0  0  0
 18 15  2  0  0  0  0
 19 17  2  0  0  0  0
  4  5  1  0  0  0  0
 18 14  1  0  0  0  0
 19 16  1  0  0  0  0
M  END
> <#>
1767

> <PLATE>
LAT023

> <ROW>
G

> <COL>
2

> <COORD>
G02

> <LATID>
LAT023G02

> <Supplier>
Chembridge

> <Suplier_CAT#>
5524440

> <Name>
Novel

> <Sec_Name>
146_D09

> <Concentration_(mM)>
2.5

> <IC50_(µM)>
23

> <Yeast_Active?>
-

> <Pubchem_CID>
NULL

$$$$
