
  -ISIS-  08130814242D

 22 22  0  0  0  0  0  0  0  0999 V2000
   -2.6958    0.2000    0.0000 C   0  0  0  0  0  0  0  0  0  0  0  0
   -3.5000   -0.2667    0.0000 N   0  0  0  0  0  0  0  0  0  0  0  0
   -4.3125    1.1458    0.0000 C   0  0  0  0  0  0  0  0  0  0  0  0
   -2.6958    1.1458    0.0000 C   0  0  0  0  0  0  0  0  0  0  0  0
   -4.3125    0.2000    0.0000 C   0  0  0  0  0  0  0  0  0  0  0  0
   -3.5000    1.6125    0.0000 C   0  0  0  0  0  0  0  0  0  0  0  0
    2.1917    0.2125    0.0000 N   0  3  0  0  0  0  0  0  0  0  0  0
   -5.1208    1.6125    0.0000 C   0  0  0  0  0  0  0  0  0  0  0  0
   -5.9208    2.0708    0.0000 N   0  0  0  0  0  0  0  0  0  0  0  0
   -1.0625    0.1958    0.0000 N   0  0  0  0  0  0  0  0  0  0  0  0
   -1.8625   -0.2667    0.0000 N   0  0  0  0  0  0  0  0  0  0  0  0
    1.3792   -0.2542    0.0000 C   0  0  0  0  0  0  0  0  0  0  0  0
   -1.8833    1.5958    0.0000 Cl  0  0  0  0  0  0  0  0  0  0  0  0
    0.5500    0.2000    0.0000 C   0  0  0  0  0  0  0  0  0  0  0  0
   -5.1208   -0.2500    0.0000 Cl  0  0  0  0  0  0  0  0  0  0  0  0
   -3.4958    2.5500    0.0000 Cl  0  0  0  0  0  0  0  0  0  0  0  0
   -0.2500   -0.2667    0.0000 C   0  0  0  0  0  0  0  0  0  0  0  0
    2.1875    1.1625    0.0000 C   0  0  0  0  0  0  0  0  0  0  0  0
    3.0000   -0.2667    0.0000 C   0  0  0  0  0  0  0  0  0  0  0  0
    1.3500    1.6333    0.0000 C   0  0  0  0  0  0  0  0  0  0  0  0
    0.5375    1.1500    0.0000 C   0  0  0  0  0  0  0  0  0  0  0  0
    3.3875    0.3125    0.0000 Cl  0  5  0  0  0  0  0  0  0  0  0  0
  2  1  1  0  0  0  0
  3  6  2  0  0  0  0
  4  1  2  0  0  0  0
  5  2  2  0  0  0  0
  6  4  1  0  0  0  0
  7 12  2  0  0  0  0
  8  3  1  0  0  0  0
  9  8  3  0  0  0  0
 10 11  1  0  0  0  0
 11  1  1  0  0  0  0
 12 14  1  0  0  0  0
 13  4  1  0  0  0  0
 14 17  1  0  0  0  0
 15  5  1  0  0  0  0
 16  6  1  0  0  0  0
 17 10  2  0  0  0  0
 18 20  2  0  0  0  0
 19  7  1  0  0  0  0
 20 21  1  0  0  0  0
 21 14  2  0  0  0  0
  5  3  1  0  0  0  0
 18  7  1  0  0  0  0
M  CHG  2   7   1  22  -1
M  END
> <#>
1600

> <PLATE>
LAT020

> <ROW>
H

> <COL>
11

> <COORD>
H11

> <LATID>
LAT020H11

> <Supplier>
Chembridge

> <Suplier_CAT#>
5309139

> <Name>
Novel

> <Concentration_(mM)>
2.5

> <IC50_(µM)>
inactive

> <Yeast_Active?>
-

> <Pubchem_CID>
2840609

$$$$
