
  -ISIS-  08130814242D

 18 20  0  0  0  0  0  0  0  0999 V2000
    0.2250    0.0250    0.0000 C   0  0  0  0  0  0  0  0  0  0  0  0
   -0.5875   -0.4375    0.0000 N   0  0  0  0  0  0  0  0  0  0  0  0
    1.0250   -0.4375    0.0000 N   0  0  3  0  0  0  0  0  0  0  0  0
   -1.3875    0.0250    0.0000 C   0  0  0  0  0  0  0  0  0  0  0  0
    0.2250    0.9625    0.0000 C   0  0  0  0  0  0  0  0  0  0  0  0
   -0.5875    1.4250    0.0000 C   0  0  0  0  0  0  0  0  0  0  0  0
   -1.3875    0.9625    0.0000 C   0  0  0  0  0  0  0  0  0  0  0  0
    2.6458   -1.3750    0.0000 N   0  0  3  0  0  0  0  0  0  0  0  0
    1.0250   -1.3750    0.0000 C   0  0  0  0  0  0  0  0  0  0  0  0
    1.8250    0.0250    0.0000 C   0  0  0  0  0  0  0  0  0  0  0  0
    1.8250   -1.8375    0.0000 C   0  0  0  0  0  0  0  0  0  0  0  0
    2.6458   -0.4375    0.0000 C   0  0  0  0  0  0  0  0  0  0  0  0
    3.4250   -1.8375    0.0000 C   0  0  0  0  0  0  0  0  0  0  0  0
   -0.5875    2.3625    0.0000 C   0  0  0  0  0  0  0  0  0  0  0  0
   -2.1875   -0.4375    0.0000 C   0  0  0  0  0  0  0  0  0  0  0  0
   -2.1875    1.4250    0.0000 C   0  0  0  0  0  0  0  0  0  0  0  0
   -2.9917    0.0250    0.0000 C   0  0  0  0  0  0  0  0  0  0  0  0
   -2.9917    0.9625    0.0000 C   0  0  0  0  0  0  0  0  0  0  0  0
  2  1  1  0  0  0  0
  3  1  1  0  0  0  0
  4  2  2  0  0  0  0
  5  1  2  0  0  0  0
  6  5  1  0  0  0  0
  7  6  2  0  0  0  0
  8 12  1  0  0  0  0
  9  3  1  0  0  0  0
 10  3  1  0  0  0  0
 11  9  1  0  0  0  0
 12 10  1  0  0  0  0
 13  8  1  0  0  0  0
 14  6  1  0  0  0  0
 15  4  1  0  0  0  0
 16  7  1  0  0  0  0
 17 15  2  0  0  0  0
 18 16  2  0  0  0  0
  7  4  1  0  0  0  0
  8 11  1  0  0  0  0
 18 17  1  0  0  0  0
M  END
> <#>
1871

> <PLATE>
LAT024

> <ROW>
G

> <COL>
5

> <COORD>
G05

> <LATID>
LAT024G05

> <Supplier>
Asinex

> <Suplier_CAT#>
BAS 00437671

> <Name>
Novel

> <Concentration_(mM)>
2.5

> <IC50_(µM)>
inactive

> <Yeast_Active?>
-

> <Pubchem_CID>
747018

$$$$
