
  -ISIS-  08130814242D

 24 25  0  0  0  0  0  0  0  0999 V2000
    2.8042    1.8958    0.0000 C   0  0  0  0  0  0  0  0  0  0  0  0
   -2.4000   -1.1000    0.0000 C   0  0  0  0  0  0  0  0  0  0  0  0
   -0.0500    0.9125    0.0000 C   0  0  0  0  0  0  0  0  0  0  0  0
    3.3875    0.9125    0.0000 C   0  0  0  0  0  0  0  0  0  0  0  0
   -1.8208   -2.0792    0.0000 C   0  0  0  0  0  0  0  0  0  0  0  0
    1.6667    1.8958    0.0000 N   0  0  0  0  0  0  0  0  0  0  0  0
    1.0875    0.9125    0.0000 N   0  0  0  0  0  0  0  0  0  0  0  0
   -2.4000   -3.0667    0.0000 C   0  0  0  0  0  0  0  0  0  0  0  0
   -1.7958   -0.0792    0.0000 O   0  0  0  0  0  0  0  0  0  0  0  0
   -3.5458   -1.1000    0.0000 C   0  0  0  0  0  0  0  0  0  0  0  0
    3.3875    2.8833    0.0000 O   0  0  0  0  0  0  0  0  0  0  0  0
   -0.6333    1.8958    0.0000 O   0  0  0  0  0  0  0  0  0  0  0  0
    5.1042   -0.0792    0.0000 N   0  0  0  0  0  0  0  0  0  0  0  0
   -0.6333   -0.0792    0.0000 C   0  0  0  0  0  0  0  0  0  0  0  0
   -0.6625   -2.0792    0.0000 C   0  0  3  0  0  0  0  0  0  0  0  0
   -3.5458   -3.0667    0.0000 C   0  0  0  0  0  0  0  0  0  0  0  0
   -4.1208   -2.0792    0.0000 C   0  0  0  0  0  0  0  0  0  0  0  0
    4.5292    0.9125    0.0000 C   0  0  0  0  0  0  0  0  0  0  0  0
    2.8042   -0.0792    0.0000 C   0  0  0  0  0  0  0  0  0  0  0  0
    4.5292   -1.0667    0.0000 C   0  0  0  0  0  0  0  0  0  0  0  0
   -0.1000   -3.0667    0.0000 C   0  0  0  0  0  0  0  0  0  0  0  0
   -0.1000   -1.1000    0.0000 C   0  0  0  0  0  0  0  0  0  0  0  0
   -5.2708   -2.0792    0.0000 C   0  0  0  0  0  0  0  0  0  0  0  0
    3.3875   -1.0667    0.0000 C   0  0  0  0  0  0  0  0  0  0  0  0
  2  9  1  0  0  0  0
  3  7  1  0  0  0  0
  4  1  1  0  0  0  0
  5  2  1  0  0  0  0
  6  1  1  0  0  0  0
  7  6  1  0  0  0  0
  8  5  2  0  0  0  0
  9 14  1  0  0  0  0
 10  2  2  0  0  0  0
 11  1  2  0  0  0  0
 12  3  2  0  0  0  0
 13 18  2  0  0  0  0
 14  3  1  0  0  0  0
 15  5  1  0  0  0  0
 16 17  2  0  0  0  0
 17 10  1  0  0  0  0
 18  4  1  0  0  0  0
 19  4  2  0  0  0  0
 20 24  2  0  0  0  0
 21 15  1  0  0  0  0
 22 15  1  0  0  0  0
 23 17  1  0  0  0  0
 24 19  1  0  0  0  0
 13 20  1  0  0  0  0
  8 16  1  0  0  0  0
M  END
> <#>
1883

> <PLATE>
LAT024

> <ROW>
C

> <COL>
7

> <COORD>
C07

> <LATID>
LAT024C07

> <Supplier>
Chembridge

> <Suplier_CAT#>
5270999

> <Name>
S001 A05

> <Concentration_(mM)>
2.5

> <IC50_(µM)>
>100

> <Yeast_Active?>
-

> <Pubchem_CID>
687609

$$$$
