
  -ISIS-  08130814242D

 19 20  0  0  0  0  0  0  0  0999 V2000
    3.5375   -1.3792    0.0000 N   0  0  0  0  0  0  0  0  0  0  0  0
    2.2375   -1.3792    0.0000 C   0  0  0  0  0  0  0  0  0  0  0  0
    2.8875   -1.0042    0.0000 N   0  0  0  0  0  0  0  0  0  0  0  0
    2.2375   -2.1292    0.0000 O   0  0  0  0  0  0  0  0  0  0  0  0
    4.1875   -1.0042    0.0000 C   0  0  0  0  0  0  0  0  0  0  0  0
    1.5875   -1.0000    0.0000 C   0  0  0  0  0  0  0  0  0  0  0  0
    5.4875   -1.0042    0.0000 C   0  0  0  0  0  0  0  0  0  0  0  0
    4.8375   -1.3792    0.0000 C   0  0  0  0  0  0  0  0  0  0  0  0
    6.1375   -1.3792    0.0000 C   0  0  0  0  0  0  0  0  0  0  0  0
    6.7875   -1.0042    0.0000 Cl  0  0  0  0  0  0  0  0  0  0  0  0
    0.9375   -1.3792    0.0000 C   0  0  0  0  0  0  0  0  0  0  0  0
    5.4875   -2.5042    0.0000 C   0  0  0  0  0  0  0  0  0  0  0  0
    6.1375   -2.1292    0.0000 C   0  0  0  0  0  0  0  0  0  0  0  0
    4.8375   -2.1292    0.0000 C   0  0  0  0  0  0  0  0  0  0  0  0
    0.2875   -1.0000    0.0000 C   0  0  0  0  0  0  0  0  0  0  0  0
    0.9375   -2.1292    0.0000 C   0  0  0  0  0  0  0  0  0  0  0  0
   -0.3500   -1.3792    0.0000 C   0  0  0  0  0  0  0  0  0  0  0  0
    0.2875   -2.5042    0.0000 C   0  0  0  0  0  0  0  0  0  0  0  0
   -0.3500   -2.1292    0.0000 C   0  0  0  0  0  0  0  0  0  0  0  0
  2  3  1  0  0  0  0
  3  1  1  0  0  0  0
  4  2  2  0  0  0  0
  5  1  2  0  0  0  0
  6  2  1  0  0  0  0
  7  8  2  0  0  0  0
  8  5  1  0  0  0  0
  9  7  1  0  0  0  0
 10  9  1  0  0  0  0
 11  6  1  0  0  0  0
 12 14  2  0  0  0  0
 13 12  1  0  0  0  0
 14  8  1  0  0  0  0
 15 11  1  0  0  0  0
 16 11  2  0  0  0  0
 17 15  2  0  0  0  0
 18 16  1  0  0  0  0
 19 18  2  0  0  0  0
  9 13  2  0  0  0  0
 19 17  1  0  0  0  0
M  END
> <#>
1102

> <PLATE>
LAT014

> <ROW>
F

> <COL>
9

> <COORD>
F09

> <LATID>
LAT014F09

> <Supplier>
Chembridge

> <Suplier_CAT#>
5326085

> <Name>
Novel

> <Concentration_(mM)>
2.5

> <IC50_(µM)>
>100

> <Yeast_Active?>
-

> <Pubchem_CID>
795117

$$$$
