
  -ISIS-  08130814242D

 18 21  0  0  0  0  0  0  0  0999 V2000
   -1.9500    2.2083    0.0000 C   0  0  3  0  0  0  0  0  0  0  0  0
   -1.2708    1.8125    0.0000 N   0  0  0  0  0  0  0  0  0  0  0  0
   -3.3333    1.9125    0.0000 C   0  0  3  0  0  0  0  0  0  0  0  0
   -2.7000    3.2125    0.0000 C   0  0  3  0  0  0  0  0  0  0  0  0
   -3.4625    2.2708    0.0000 C   0  0  3  0  0  0  0  0  0  0  0  0
   -1.9500    2.9833    0.0000 C   0  0  0  0  0  0  0  0  0  0  0  0
   -2.6125    2.0208    0.0000 C   0  0  0  0  0  0  0  0  0  0  0  0
   -2.5208    1.6333    0.0000 C   0  0  0  0  0  0  0  0  0  0  0  0
    1.0500    1.7208    0.0000 N   0  0  0  0  0  0  0  0  0  0  0  0
   -3.4625    2.9333    0.0000 C   0  0  0  0  0  0  0  0  0  0  0  0
   -3.3333    2.6833    0.0000 C   0  0  0  0  0  0  0  0  0  0  0  0
   -4.0208    1.6333    0.0000 C   0  0  0  0  0  0  0  0  0  0  0  0
    0.3667    2.1208    0.0000 C   0  0  0  0  0  0  0  0  0  0  0  0
   -0.3000    1.7458    0.0000 C   0  0  0  0  0  0  0  0  0  0  0  0
    1.7292    2.1208    0.0000 C   0  0  0  0  0  0  0  0  0  0  0  0
    0.3667    2.9000    0.0000 C   0  0  0  0  0  0  0  0  0  0  0  0
    1.7292    2.9125    0.0000 C   0  0  0  0  0  0  0  0  0  0  0  0
    1.0500    3.3000    0.0000 C   0  0  0  0  0  0  0  0  0  0  0  0
  2  1  1  0  0  0  0
  3  8  1  0  0  0  0
  4  6  1  0  0  0  0
  5  7  1  0  0  0  0
  6  1  1  0  0  0  0
  7  1  1  0  0  0  0
  8  1  1  0  0  0  0
  9 13  1  0  0  0  0
 10  5  1  0  0  0  0
 11  3  1  0  0  0  0
 12  3  1  0  0  0  0
 13 14  1  0  0  0  0
 14  2  1  0  0  0  0
 15  9  2  0  0  0  0
 16 13  2  0  0  0  0
 17 18  2  0  0  0  0
 18 16  1  0  0  0  0
 12  5  1  0  0  0  0
 11  4  1  0  0  0  0
  4 10  1  0  0  0  0
 15 17  1  0  0  0  0
M  END
> <#>
1403

> <PLATE>
LAT018

> <ROW>
C

> <COL>
7

> <COORD>
C07

> <LATID>
LAT018C07

> <Supplier>
Chembridge

> <Suplier_CAT#>
5555333

> <Name>
Novel

> <Concentration_(mM)>
2.5

> <IC50_(µM)>
inactive

> <Yeast_Active?>
-

> <Pubchem_CID>
2852256

$$$$
