
  -ISIS-  08130814242D

 19 19  0  0  0  0  0  0  0  0999 V2000
    4.7875   -2.1000    0.0000 C   0  0  0  0  0  0  0  0  0  0  0  0
    2.6375   -2.5167    0.0000 C   0  0  0  0  0  0  0  0  0  0  0  0
    4.0667   -2.5042    0.0000 N   0  0  0  0  0  0  0  0  0  0  0  0
    3.3542   -2.9292    0.0000 N   0  0  0  0  0  0  0  0  0  0  0  0
    4.7792   -1.2667    0.0000 C   0  0  3  0  0  0  0  0  0  0  0  0
    1.2042   -2.5167    0.0000 O   0  0  0  0  0  0  0  0  0  0  0  0
    5.5000   -2.5042    0.0000 O   0  0  0  0  0  0  0  0  0  0  0  0
    2.6375   -1.7000    0.0000 O   0  0  0  0  0  0  0  0  0  0  0  0
    0.5000   -2.9375    0.0000 C   0  0  0  0  0  0  0  0  0  0  0  0
    1.9292   -2.9292    0.0000 C   0  0  0  0  0  0  0  0  0  0  0  0
    0.5000   -3.7667    0.0000 C   0  0  0  0  0  0  0  0  0  0  0  0
    4.0667   -0.8667    0.0000 C   0  0  0  0  0  0  0  0  0  0  0  0
    5.5792   -1.4875    0.0000 C   0  0  0  0  0  0  0  0  0  0  0  0
    5.5000   -0.8542    0.0000 C   0  0  0  0  0  0  0  0  0  0  0  0
   -0.2125   -2.5292    0.0000 C   0  0  0  0  0  0  0  0  0  0  0  0
    1.2167   -4.1792    0.0000 C   0  0  0  0  0  0  0  0  0  0  0  0
   -0.2125   -4.1792    0.0000 C   0  0  0  0  0  0  0  0  0  0  0  0
   -0.9208   -3.7667    0.0000 C   0  0  0  0  0  0  0  0  0  0  0  0
   -0.9208   -2.9500    0.0000 C   0  0  0  0  0  0  0  0  0  0  0  0
  2  4  1  0  0  0  0
  3  1  1  0  0  0  0
  4  3  1  0  0  0  0
  5  1  1  0  0  0  0
  6 10  1  0  0  0  0
  7  1  2  0  0  0  0
  8  2  2  0  0  0  0
  9  6  1  0  0  0  0
 10  2  1  0  0  0  0
 11  9  1  0  0  0  0
 12  5  1  0  0  0  0
 13  5  1  0  0  0  0
 14  5  1  0  0  0  0
 15  9  2  0  0  0  0
 16 11  1  0  0  0  0
 17 11  2  0  0  0  0
 18 19  2  0  0  0  0
 19 15  1  0  0  0  0
 17 18  1  0  0  0  0
M  END
> <#>
1928

> <PLATE>
LAT025

> <ROW>
H

> <COL>
2

> <COORD>
H02

> <LATID>
LAT025H02

> <Supplier>
Chembridge

> <Suplier_CAT#>
5618837

> <Name>
Novel

> <Sec_Name>
187_E07

> <Concentration_(mM)>
2.5

> <IC50_(µM)>
9

> <Yeast_Active?>
-

> <Pubchem_CID>
1586479

$$$$
