
  -ISIS-  08130814242D

 29 32  0  0  0  0  0  0  0  0999 V2000
    5.0208   -3.2167    0.0000 N   0  0  3  0  0  0  0  0  0  0  0  0
    4.3474   -3.7034    0.0000 N   0  0  0  0  0  0  0  0  0  0  0  0
    4.6041   -4.4917    0.0000 C   0  0  0  0  0  0  0  0  0  0  0  0
    5.4333   -4.4917    0.0000 C   0  0  0  0  0  0  0  0  0  0  0  0
    5.6901   -3.7034    0.0000 C   0  0  0  0  0  0  0  0  0  0  0  0
    5.0220   -2.3917    0.0000 C   0  0  0  0  0  0  0  0  0  0  0  0
    6.4749   -3.4489    0.0000 C   0  0  0  0  0  0  0  0  0  0  0  0
    5.9180   -5.1593    0.0000 C   0  0  0  0  0  0  0  0  0  0  0  0
    4.1194   -5.1593    0.0000 C   0  0  0  0  0  0  0  0  0  0  0  0
    5.7399   -1.9831    0.0000 C   0  0  0  0  0  0  0  0  0  0  0  0
    5.7415   -1.1588    0.0000 C   0  0  0  0  0  0  0  0  0  0  0  0
    5.0271   -0.7445    0.0000 C   0  0  0  0  0  0  0  0  0  0  0  0
    4.3096   -1.1604    0.0000 C   0  0  0  0  0  0  0  0  0  0  0  0
    4.3116   -1.9833    0.0000 C   0  0  0  0  0  0  0  0  0  0  0  0
    7.0844   -4.0020    0.0000 C   0  0  0  0  0  0  0  0  0  0  0  0
    7.8685   -3.7481    0.0000 C   0  0  0  0  0  0  0  0  0  0  0  0
    8.0411   -2.9404    0.0000 C   0  0  0  0  0  0  0  0  0  0  0  0
    7.4234   -2.3871    0.0000 C   0  0  0  0  0  0  0  0  0  0  0  0
    6.6417   -2.6440    0.0000 C   0  0  0  0  0  0  0  0  0  0  0  0
    3.2989   -5.0719    0.0000 C   0  0  0  0  0  0  0  0  0  0  0  0
    2.8144   -5.7387    0.0000 C   0  0  0  0  0  0  0  0  0  0  0  0
    3.1502   -6.4933    0.0000 C   0  0  0  0  0  0  0  0  0  0  0  0
    3.9752   -6.5770    0.0000 C   0  0  0  0  0  0  0  0  0  0  0  0
    4.4561   -5.9093    0.0000 C   0  0  0  0  0  0  0  0  0  0  0  0
    6.7125   -4.9417    0.0000 C   0  0  0  0  0  0  0  0  0  0  0  0
    7.2991   -5.5218    0.0000 C   0  0  0  0  0  0  0  0  0  0  0  0
    5.0272    0.0805    0.0000 O   0  0  0  0  0  0  0  0  0  0  0  0
    8.8256   -2.6849    0.0000 O   0  0  0  0  0  0  0  0  0  0  0  0
    2.6663   -7.1615    0.0000 O   0  0  0  0  0  0  0  0  0  0  0  0
 14  6  1  0  0  0  0
  5  7  1  0  0  0  0
  7 15  2  0  0  0  0
  1  2  1  0  0  0  0
 15 16  1  0  0  0  0
  4  8  1  0  0  0  0
 16 17  2  0  0  0  0
  3  4  1  0  0  0  0
 17 18  1  0  0  0  0
  3  9  1  0  0  0  0
 18 19  2  0  0  0  0
 19  7  1  0  0  0  0
  4  5  2  0  0  0  0
  9 20  2  0  0  0  0
  6 10  2  0  0  0  0
 20 21  1  0  0  0  0
  5  1  1  0  0  0  0
 21 22  2  0  0  0  0
 10 11  1  0  0  0  0
 22 23  1  0  0  0  0
  2  3  2  0  0  0  0
 23 24  2  0  0  0  0
 24  9  1  0  0  0  0
 11 12  2  0  0  0  0
  8 25  1  0  0  0  0
  1  6  1  0  0  0  0
 25 26  1  0  0  0  0
 12 13  1  0  0  0  0
 12 27  1  0  0  0  0
 17 28  1  0  0  0  0
 13 14  2  0  0  0  0
 22 29  1  0  0  0  0
M  END
> <#>
235

> <PLATE>
LAT003

> <ROW>
C

> <COL>
11

> <COORD>
C11

> <LATID>
LAT003C11

> <Supplier>
Sigma

> <Suplier_CAT#>
H 6036

> <Name>
1,3,5-Tris(4-Hydroxyphenyl)-4-Propyl-1H-Pyrazole

> <Concentration_(mM)>
2.5

> <IC50_(µM)>
19

> <Yeast_Active?>
-

> <Pubchem_CID>
6095481

> <Description>
Specific estrogen receptor alpha (ERalpha) agonist

$$$$
