
  -ISIS-  08130814242D

 18 17  0  0  0  0  0  0  0  0999 V2000
    2.6652   -3.2875    0.0000 C   0  0  0  0  0  0  0  0  0  0  0  0
    2.6641   -4.1148    0.0000 C   0  0  0  0  0  0  0  0  0  0  0  0
    3.3789   -4.5277    0.0000 C   0  0  0  0  0  0  0  0  0  0  0  0
    4.0953   -4.1144    0.0000 C   0  0  0  0  0  0  0  0  0  0  0  0
    4.0925   -3.2838    0.0000 C   0  0  0  0  0  0  0  0  0  0  0  0
    3.3771   -2.8747    0.0000 C   0  0  0  0  0  0  0  0  0  0  0  0
    4.8042   -2.8708    0.0000 O   0  0  0  0  0  0  0  0  0  0  0  0
    5.5167   -3.2792    0.0000 C   0  0  0  0  0  0  0  0  0  0  0  0
    6.2292   -2.8667    0.0000 C   0  0  0  0  0  0  0  0  0  0  0  0
    6.9417   -3.2750    0.0000 O   0  0  0  0  0  0  0  0  0  0  0  0
    7.6542   -2.8625    0.0000 C   0  0  0  0  0  0  0  0  0  0  0  0
    8.3667   -3.2708    0.0000 C   0  0  0  0  0  0  0  0  0  0  0  0
    9.0792   -2.8583    0.0000 N   0  0  3  0  0  0  0  0  0  0  0  0
    1.9458   -4.5208    0.0000 Cl  0  0  0  0  0  0  0  0  0  0  0  0
    6.2250   -2.0417    0.0000 O   0  0  0  0  0  0  0  0  0  0  0  0
    9.0750   -2.0333    0.0000 C   0  0  0  0  0  0  0  0  0  0  0  0
    9.7917   -3.2708    0.0000 C   0  0  0  0  0  0  0  0  0  0  0  0
    6.7208   -5.0292    0.0000 Cl  0  0  0  0  0  0  0  0  0  0  0  0
  3  4  2  0  0  0  0
  8  9  1  0  0  0  0
  1  2  2  0  0  0  0
  9 10  1  0  0  0  0
  4  5  1  0  0  0  0
 10 11  1  0  0  0  0
 11 12  1  0  0  0  0
  5  6  2  0  0  0  0
 12 13  1  0  0  0  0
  6  1  1  0  0  0  0
  2 14  1  0  0  0  0
  2  3  1  0  0  0  0
  9 15  2  0  0  0  0
  5  7  1  0  0  0  0
 13 16  1  0  0  0  0
 13 17  1  0  0  0  0
  7  8  1  0  0  0  0
M  END
> <#>
217

> <PLATE>
LAT003

> <ROW>
A

> <COL>
9

> <COORD>
A09

> <LATID>
LAT003A09

> <Supplier>
Sigma

> <Suplier_CAT#>
C 8773

> <Name>
Centrophenoxine Hydrochloride

> <Concentration_(mM)>
2.5

> <IC50_(µM)>
0.26

> <Yeast_Active?>
-

> <Pubchem_CID>
4039

> <Description>
Nootropic; cholinergic drug

$$$$
