
  -ISIS-  08130814242D

 18 19  0  0  0  0  0  0  0  0999 V2000
    0.9292    1.5625    0.0000 C   0  0  0  0  0  0  0  0  0  0  0  0
    0.2375    1.2958    0.0000 C   0  0  0  0  0  0  0  0  0  0  0  0
   -0.8833    1.2708    0.0000 N   0  0  0  0  0  0  0  0  0  0  0  0
    0.9292    2.3333    0.0000 C   0  0  0  0  0  0  0  0  0  0  0  0
   -0.2625    1.6000    0.0000 N   0  0  0  0  0  0  0  0  0  0  0  0
    0.2375    0.6833    0.0000 O   0  0  0  0  0  0  0  0  0  0  0  0
   -2.8000   -0.2000    0.0000 N   0  0  0  0  0  0  0  0  0  0  0  0
   -1.4208    1.6000    0.0000 C   0  0  0  0  0  0  0  0  0  0  0  0
   -1.9958    1.2125    0.0000 C   0  0  0  0  0  0  0  0  0  0  0  0
    0.3292    2.5833    0.0000 O   0  0  0  0  0  0  0  0  0  0  0  0
    1.6000    1.1833    0.0000 C   0  0  0  0  0  0  0  0  0  0  0  0
   -1.9958    0.2708    0.0000 C   0  0  0  0  0  0  0  0  0  0  0  0
   -3.6125    0.2708    0.0000 C   0  0  0  0  0  0  0  0  0  0  0  0
    1.6000    2.7125    0.0000 C   0  0  0  0  0  0  0  0  0  0  0  0
   -2.8000    1.6833    0.0000 C   0  0  0  0  0  0  0  0  0  0  0  0
    2.2542    1.5625    0.0000 C   0  0  0  0  0  0  0  0  0  0  0  0
   -3.6125    1.2125    0.0000 C   0  0  0  0  0  0  0  0  0  0  0  0
    2.2542    2.3333    0.0000 C   0  0  0  0  0  0  0  0  0  0  0  0
  2  1  1  0  0  0  0
  3  5  1  0  0  0  0
  4  1  1  0  0  0  0
  5  2  1  0  0  0  0
  6  2  2  0  0  0  0
  7 12  1  0  0  0  0
  8  3  2  0  0  0  0
  9  8  1  0  0  0  0
 10  4  1  0  0  0  0
 11  1  2  0  0  0  0
 12  9  2  0  0  0  0
 13 17  1  0  0  0  0
 14  4  2  0  0  0  0
 15  9  1  0  0  0  0
 16 11  1  0  0  0  0
 17 15  2  0  0  0  0
 18 16  2  0  0  0  0
 18 14  1  0  0  0  0
  7 13  2  0  0  0  0
M  END
> <#>
1626

> <PLATE>
LAT021

> <ROW>
B

> <COL>
5

> <COORD>
B05

> <LATID>
LAT021B05

> <Supplier>
Chembridge

> <Suplier_CAT#>
5104605

> <Name>
Novel

> <Concentration_(mM)>
2.5

> <IC50_(µM)>
inactive

> <Yeast_Active?>
-

> <Pubchem_CID>
578325

$$$$
