
  -ISIS-  08130814242D

 34 38  0  0  0  0  0  0  0  0999 V2000
   -3.5458   -0.1500    0.0000 C   0  0  0  0  0  0  0  0  0  0  0  0
   -2.7625   -0.6042    0.0000 C   0  0  0  0  0  0  0  0  0  0  0  0
    1.9167   -0.5792    0.0000 N   0  0  0  0  0  0  0  0  0  0  0  0
   -1.9833   -0.1500    0.0000 N   0  0  0  0  0  0  0  0  0  0  0  0
   -1.9833    0.7708    0.0000 C   0  0  0  0  0  0  0  0  0  0  0  0
    1.1375    0.7958    0.0000 C   0  0  0  0  0  0  0  0  0  0  0  0
    1.1292   -0.1167    0.0000 C   0  0  0  0  0  0  0  0  0  0  0  0
   -2.7625    1.2125    0.0000 N   0  0  0  0  0  0  0  0  0  0  0  0
   -3.5458    0.7708    0.0000 C   0  0  0  0  0  0  0  0  0  0  0  0
    2.7292   -0.1292    0.0000 C   0  0  0  0  0  0  0  0  0  0  0  0
    1.9375    1.2333    0.0000 C   0  0  0  0  0  0  0  0  0  0  0  0
    2.7375    0.7833    0.0000 C   0  0  0  0  0  0  0  0  0  0  0  0
    3.5292   -0.6000    0.0000 C   0  0  0  0  0  0  0  0  0  0  0  0
   -0.4000    0.7958    0.0000 N   0  0  0  0  0  0  0  0  0  0  0  0
   -4.3208   -0.6042    0.0000 C   0  0  0  0  0  0  0  0  0  0  0  0
   -1.1833    1.2333    0.0000 N   0  0  0  0  0  0  0  0  0  0  0  0
    0.3667    1.2458    0.0000 C   0  0  0  0  0  0  0  0  0  0  0  0
   -2.7625   -1.5042    0.0000 C   0  0  0  0  0  0  0  0  0  0  0  0
   -4.3208    1.2125    0.0000 C   0  0  0  0  0  0  0  0  0  0  0  0
    3.5500    1.2125    0.0000 C   0  0  0  0  0  0  0  0  0  0  0  0
    0.4542   -0.5667    0.0000 Cl  0  0  0  0  0  0  0  0  0  0  0  0
    4.3292   -0.1500    0.0000 C   0  0  0  0  0  0  0  0  0  0  0  0
   -5.1000   -0.1500    0.0000 C   0  0  0  0  0  0  0  0  0  0  0  0
    4.3375    0.7625    0.0000 C   0  0  0  0  0  0  0  0  0  0  0  0
   -5.1000    0.7708    0.0000 C   0  0  0  0  0  0  0  0  0  0  0  0
    5.1042   -0.6000    0.0000 O   0  0  0  0  0  0  0  0  0  0  0  0
   -3.5458   -1.9667    0.0000 C   0  0  0  0  0  0  0  0  0  0  0  0
   -1.9833   -1.9667    0.0000 C   0  0  0  0  0  0  0  0  0  0  0  0
   -5.9083   -0.6292    0.0000 C   0  0  0  0  0  0  0  0  0  0  0  0
    5.1042   -1.5000    0.0000 C   0  0  0  0  0  0  0  0  0  0  0  0
    5.8792   -1.9542    0.0000 C   0  0  0  0  0  0  0  0  0  0  0  0
   -3.5458   -2.8667    0.0000 C   0  0  0  0  0  0  0  0  0  0  0  0
   -1.9833   -2.8667    0.0000 C   0  0  0  0  0  0  0  0  0  0  0  0
   -2.7625   -3.3292    0.0000 C   0  0  0  0  0  0  0  0  0  0  0  0
  2  1  1  0  0  0  0
  3  7  2  0  0  0  0
  4  2  2  0  0  0  0
  5  8  2  0  0  0  0
  6 17  1  0  0  0  0
  7  6  1  0  0  0  0
  8  9  1  0  0  0  0
  9  1  2  0  0  0  0
 10 12  1  0  0  0  0
 11  6  2  0  0  0  0
 12 11  1  0  0  0  0
 13 10  2  0  0  0  0
 14 16  1  0  0  0  0
 15  1  1  0  0  0  0
 16  5  1  0  0  0  0
 17 14  2  0  0  0  0
 18  2  1  0  0  0  0
 19  9  1  0  0  0  0
 20 12  2  0  0  0  0
 21  7  1  0  0  0  0
 22 24  2  0  0  0  0
 23 15  2  0  0  0  0
 24 20  1  0  0  0  0
 25 23  1  0  0  0  0
 26 22  1  0  0  0  0
 27 18  2  0  0  0  0
 28 18  1  0  0  0  0
 29 23  1  0  0  0  0
 30 26  1  0  0  0  0
 31 30  1  0  0  0  0
 32 27  1  0  0  0  0
 33 28  2  0  0  0  0
 34 33  1  0  0  0  0
 25 19  2  0  0  0  0
  4  5  1  0  0  0  0
 34 32  2  0  0  0  0
 10  3  1  0  0  0  0
 13 22  1  0  0  0  0
M  END
> <#>
1635

> <PLATE>
LAT021

> <ROW>
C

> <COL>
6

> <COORD>
C06

> <LATID>
LAT021C06

> <Supplier>
Chembridge

> <Suplier_CAT#>
5146116

> <Name>
Novel

> <Concentration_(mM)>
2.5

> <IC50_(µM)>
inactive

> <Yeast_Active?>
-

> <Pubchem_CID>
2830444

$$$$
