
  -ISIS-  08130814242D

 18 19  0  0  0  0  0  0  0  0999 V2000
   -1.3125   -1.2667    0.0000 N   0  0  0  0  0  0  0  0  0  0  0  0
   -2.6125   -1.2667    0.0000 C   0  0  0  0  0  0  0  0  0  0  0  0
   -1.9708   -0.9000    0.0000 N   0  0  0  0  0  0  0  0  0  0  0  0
    0.6167   -2.4000    0.0000 N   0  0  0  0  0  0  0  0  0  0  0  0
   -2.6125   -2.0167    0.0000 O   0  0  0  0  0  0  0  0  0  0  0  0
   -0.6625   -0.9000    0.0000 C   0  0  0  0  0  0  0  0  0  0  0  0
   -0.0208   -1.2667    0.0000 C   0  0  0  0  0  0  0  0  0  0  0  0
   -3.2625   -0.9000    0.0000 C   0  0  0  0  0  0  0  0  0  0  0  0
   -3.9125   -1.2667    0.0000 C   0  0  0  0  0  0  0  0  0  0  0  0
   -0.0208   -2.0167    0.0000 C   0  0  0  0  0  0  0  0  0  0  0  0
    1.2667   -2.0292    0.0000 C   0  0  0  0  0  0  0  0  0  0  0  0
    0.6167   -0.9000    0.0000 C   0  0  0  0  0  0  0  0  0  0  0  0
   -4.5708   -0.8875    0.0000 C   0  0  0  0  0  0  0  0  0  0  0  0
   -3.9125   -2.0167    0.0000 C   0  0  0  0  0  0  0  0  0  0  0  0
    1.2667   -1.2792    0.0000 C   0  0  0  0  0  0  0  0  0  0  0  0
   -4.5708   -2.4000    0.0000 C   0  0  0  0  0  0  0  0  0  0  0  0
   -5.2208   -1.2667    0.0000 C   0  0  0  0  0  0  0  0  0  0  0  0
   -5.2208   -2.0167    0.0000 C   0  0  0  0  0  0  0  0  0  0  0  0
  2  3  1  0  0  0  0
  3  1  1  0  0  0  0
  4 10  2  0  0  0  0
  5  2  2  0  0  0  0
  6  1  2  0  0  0  0
  7  6  1  0  0  0  0
  8  2  1  0  0  0  0
  9  8  1  0  0  0  0
 10  7  1  0  0  0  0
 11 15  2  0  0  0  0
 12  7  2  0  0  0  0
 13  9  1  0  0  0  0
 14  9  2  0  0  0  0
 15 12  1  0  0  0  0
 16 14  1  0  0  0  0
 17 13  2  0  0  0  0
 18 16  2  0  0  0  0
 11  4  1  0  0  0  0
 18 17  1  0  0  0  0
M  END
> <#>
1601

> <PLATE>
LAT021

> <ROW>
A

> <COL>
2

> <COORD>
A02

> <LATID>
LAT021A02

> <Supplier>
Chembridge

> <Suplier_CAT#>
5326229

> <Name>
Novel

> <Concentration_(mM)>
2.5

> <IC50_(µM)>
>100

> <Yeast_Active?>
-

> <Pubchem_CID>
677614

$$$$
