
  -ISIS-  08130814242D

 21 22  0  0  0  0  0  0  0  0999 V2000
    2.5500   -3.1250    0.0000 S   0  0  3  0  0  0  0  0  0  0  0  0
    2.5500   -1.1500    0.0000 C   0  0  0  0  0  0  0  0  0  0  0  0
    1.9792   -2.7917    0.0000 N   0  0  0  0  0  0  0  0  0  0  0  0
    3.1167   -3.4542    0.0000 C   0  0  0  0  0  0  0  0  0  0  0  0
    2.8792   -2.5500    0.0000 O   0  0  0  0  0  0  0  0  0  0  0  0
    2.2167   -3.7042    0.0000 O   0  0  0  0  0  0  0  0  0  0  0  0
    3.1250   -0.8167    0.0000 C   0  0  0  0  0  0  0  0  0  0  0  0
    1.9792   -0.8167    0.0000 C   0  0  0  0  0  0  0  0  0  0  0  0
    2.5500   -1.8042    0.0000 C   0  0  0  0  0  0  0  0  0  0  0  0
    1.9792   -2.1375    0.0000 C   0  0  0  0  0  0  0  0  0  0  0  0
    3.1250   -0.1542    0.0000 O   0  0  0  0  0  0  0  0  0  0  0  0
    3.1167   -4.1167    0.0000 C   0  0  0  0  0  0  0  0  0  0  0  0
    3.6875   -3.1292    0.0000 C   0  0  0  0  0  0  0  0  0  0  0  0
    1.4167   -1.1500    0.0000 C   0  0  0  0  0  0  0  0  0  0  0  0
    1.4167   -1.8042    0.0000 C   0  0  0  0  0  0  0  0  0  0  0  0
    4.2542   -3.4542    0.0000 C   0  0  0  0  0  0  0  0  0  0  0  0
    3.6875   -4.4417    0.0000 C   0  0  0  0  0  0  0  0  0  0  0  0
    4.2542   -4.1167    0.0000 C   0  0  0  0  0  0  0  0  0  0  0  0
    1.9792   -0.1542    0.0000 O   0  0  0  0  0  0  0  0  0  0  0  0
    3.6917   -1.1417    0.0000 C   0  0  0  0  0  0  0  0  0  0  0  0
    4.8292   -4.4417    0.0000 C   0  0  0  0  0  0  0  0  0  0  0  0
  2  9  2  0  0  0  0
  3  1  1  0  0  0  0
  4  1  1  0  0  0  0
  5  1  2  0  0  0  0
  6  1  2  0  0  0  0
  7  2  1  0  0  0  0
  8 14  2  0  0  0  0
  9 10  1  0  0  0  0
 10  3  1  0  0  0  0
 11  7  2  0  0  0  0
 12  4  1  0  0  0  0
 13  4  2  0  0  0  0
 14 15  1  0  0  0  0
 15 10  2  0  0  0  0
 16 13  1  0  0  0  0
 17 12  2  0  0  0  0
 18 16  2  0  0  0  0
 19  8  1  0  0  0  0
 20  7  1  0  0  0  0
 21 18  1  0  0  0  0
 18 17  1  0  0  0  0
  8  2  1  0  0  0  0
M  END
> <#>
1216

> <PLATE>
LAT016

> <ROW>
H

> <COL>
3

> <COORD>
H03

> <LATID>
LAT016H03

> <Supplier>
Chembridge

> <Suplier_CAT#>
5940226

> <Name>
Novel

> <Concentration_(mM)>
2.5

> <IC50_(µM)>
67

> <Yeast_Active?>
-

> <Pubchem_CID>
877869

$$$$
