
  -ISIS-  08130814242D

 25 27  0  0  0  0  0  0  0  0999 V2000
    5.1500    2.1833    0.0000 N   0  0  3  0  0  0  0  0  0  0  0  0
    6.3375    1.9333    0.0000 C   0  0  3  0  0  0  0  0  0  0  0  0
    5.5250    2.8333    0.0000 C   0  0  0  0  0  0  0  0  0  0  0  0
    6.9792    1.5583    0.0000 C   0  0  0  0  0  0  0  0  0  0  0  0
    5.6500    1.6208    0.0000 C   0  0  0  0  0  0  0  0  0  0  0  0
    6.2542    2.6750    0.0000 C   0  0  0  0  0  0  0  0  0  0  0  0
    7.6292    1.9333    0.0000 N   0  0  0  0  0  0  0  0  0  0  0  0
    4.4042    2.1000    0.0000 C   0  0  0  0  0  0  0  0  0  0  0  0
    5.2167    3.5208    0.0000 O   0  0  0  0  0  0  0  0  0  0  0  0
    9.5792    1.5583    0.0000 N   0  0  0  0  0  0  0  0  0  0  0  0
    6.9792    0.8083    0.0000 O   0  0  0  0  0  0  0  0  0  0  0  0
    8.2792    1.5583    0.0000 C   0  0  0  0  0  0  0  0  0  0  0  0
    8.9292    1.9333    0.0000 C   0  0  0  0  0  0  0  0  0  0  0  0
    1.8542    1.1833    0.0000 C   0  0  0  0  0  0  0  0  0  0  0  0
    3.3500    1.3375    0.0000 C   0  0  0  0  0  0  0  0  0  0  0  0
    4.0917    1.4208    0.0000 C   0  0  0  0  0  0  0  0  0  0  0  0
    1.1125    1.1083    0.0000 F   0  0  0  0  0  0  0  0  0  0  0  0
    2.3000    0.5750    0.0000 C   0  0  0  0  0  0  0  0  0  0  0  0
    2.1667    1.8708    0.0000 C   0  0  0  0  0  0  0  0  0  0  0  0
    3.0417    0.6583    0.0000 C   0  0  0  0  0  0  0  0  0  0  0  0
    2.9125    1.9458    0.0000 C   0  0  0  0  0  0  0  0  0  0  0  0
   10.2292    1.9333    0.0000 C   0  0  0  0  0  0  0  0  0  0  0  0
    8.9292    2.6833    0.0000 C   0  0  0  0  0  0  0  0  0  0  0  0
   10.2292    2.6833    0.0000 C   0  0  0  0  0  0  0  0  0  0  0  0
    9.5792    3.0583    0.0000 C   0  0  0  0  0  0  0  0  0  0  0  0
  2  5  1  0  0  0  0
  3  1  1  0  0  0  0
  4  2  1  0  0  0  0
  5  1  1  0  0  0  0
  6  3  1  0  0  0  0
  7  4  1  0  0  0  0
  8  1  1  0  0  0  0
  9  3  2  0  0  0  0
 10 13  1  0  0  0  0
 11  4  2  0  0  0  0
 12  7  1  0  0  0  0
 13 12  1  0  0  0  0
 14 19  2  0  0  0  0
 15 16  1  0  0  0  0
 16  8  1  0  0  0  0
 17 14  1  0  0  0  0
 18 20  2  0  0  0  0
 19 21  1  0  0  0  0
 20 15  1  0  0  0  0
 21 15  2  0  0  0  0
 22 10  2  0  0  0  0
 23 13  2  0  0  0  0
 24 25  2  0  0  0  0
 25 23  1  0  0  0  0
  6  2  1  0  0  0  0
 14 18  1  0  0  0  0
 24 22  1  0  0  0  0
M  END
> <#>
1471

> <PLATE>
LAT019

> <ROW>
G

> <COL>
5

> <COORD>
G05

> <LATID>
LAT019G05

> <Supplier>
Chembridge

> <Suplier_CAT#>
9032737

> <Name>
Novel

> <Concentration_(mM)>
2.5

> <IC50_(µM)>
inactive

> <Yeast_Active?>
-

> <Pubchem_CID>
6461898

$$$$
