
  -ISIS-  08130814242D

 28 31  0  0  0  0  0  0  0  0999 V2000
   -1.5458    0.1708    0.0000 C   0  0  0  0  0  0  0  0  0  0  0  0
   -2.3500   -0.3000    0.0000 N   0  0  0  0  0  0  0  0  0  0  0  0
   -1.5458    1.1125    0.0000 C   0  0  0  0  0  0  0  0  0  0  0  0
    1.7000    1.1333    0.0000 C   0  0  0  0  0  0  0  0  0  0  0  0
    2.5042    1.5958    0.0000 C   0  0  0  0  0  0  0  0  0  0  0  0
   -0.7333   -0.3000    0.0000 S   0  0  0  0  0  0  0  0  0  0  0  0
   -2.3500    1.5833    0.0000 C   0  0  0  0  0  0  0  0  0  0  0  0
   -3.1625    0.1708    0.0000 C   0  0  0  0  0  0  0  0  0  0  0  0
    0.0792    1.1208    0.0000 N   0  0  0  0  0  0  0  0  0  0  0  0
    3.3292    1.2000    0.0000 O   0  0  0  0  0  0  0  0  0  0  0  0
   -3.1625    1.1125    0.0000 C   0  0  0  0  0  0  0  0  0  0  0  0
    0.8792    1.5958    0.0000 N   0  0  0  0  0  0  0  0  0  0  0  0
   -0.7333    1.5833    0.0000 C   0  0  0  0  0  0  0  0  0  0  0  0
    1.7000    0.2000    0.0000 O   0  0  0  0  0  0  0  0  0  0  0  0
    2.5792    2.5000    0.0000 C   0  0  0  0  0  0  0  0  0  0  0  0
    3.9875    1.8958    0.0000 C   0  0  0  0  0  0  0  0  0  0  0  0
    3.5167    2.7083    0.0000 C   0  0  0  0  0  0  0  0  0  0  0  0
   -0.7333   -1.2292    0.0000 C   0  0  0  0  0  0  0  0  0  0  0  0
   -0.7333   -3.1042    0.0000 C   0  0  0  0  0  0  0  0  0  0  0  0
    0.0792   -1.7000    0.0000 C   0  0  0  0  0  0  0  0  0  0  0  0
   -1.5458   -1.7000    0.0000 C   0  0  0  0  0  0  0  0  0  0  0  0
    0.0792   -2.6375    0.0000 C   0  0  0  0  0  0  0  0  0  0  0  0
   -1.5458   -2.6375    0.0000 C   0  0  0  0  0  0  0  0  0  0  0  0
   -3.9708   -0.3000    0.0000 C   0  0  0  0  0  0  0  0  0  0  0  0
   -3.9708    1.5833    0.0000 C   0  0  0  0  0  0  0  0  0  0  0  0
   -0.7333   -4.0375    0.0000 C   0  0  0  0  0  0  0  0  0  0  0  0
   -4.7833    1.1125    0.0000 C   0  0  0  0  0  0  0  0  0  0  0  0
   -4.7833    0.1708    0.0000 C   0  0  0  0  0  0  0  0  0  0  0  0
  2  1  2  0  0  0  0
  3  1  1  0  0  0  0
  4 12  1  0  0  0  0
  5  4  1  0  0  0  0
  6  1  1  0  0  0  0
  7  3  2  0  0  0  0
  8  2  1  0  0  0  0
  9 13  2  0  0  0  0
 10  5  1  0  0  0  0
 11  7  1  0  0  0  0
 12  9  1  0  0  0  0
 13  3  1  0  0  0  0
 14  4  2  0  0  0  0
 15  5  2  0  0  0  0
 16 10  1  0  0  0  0
 17 15  1  0  0  0  0
 18  6  1  0  0  0  0
 19 23  2  0  0  0  0
 20 18  1  0  0  0  0
 21 18  2  0  0  0  0
 22 20  2  0  0  0  0
 23 21  1  0  0  0  0
 24  8  1  0  0  0  0
 25 11  1  0  0  0  0
 26 19  1  0  0  0  0
 27 25  2  0  0  0  0
 28 24  2  0  0  0  0
  8 11  2  0  0  0  0
 22 19  1  0  0  0  0
 28 27  1  0  0  0  0
 16 17  2  0  0  0  0
M  END
> <#>
1636

> <PLATE>
LAT021

> <ROW>
D

> <COL>
6

> <COORD>
D06

> <LATID>
LAT021D06

> <Supplier>
Chembridge

> <Suplier_CAT#>
5538044

> <Name>
Novel

> <Concentration_(mM)>
2.5

> <IC50_(µM)>
>100

> <Yeast_Active?>
-

> <Pubchem_CID>
1368540

$$$$
