
  -ISIS-  08130814242D

 27 29  0  0  0  0  0  0  0  0999 V2000
   -5.6958    2.0333    0.0000 C   0  0  0  0  0  0  0  0  0  0  0  0
   -6.5042    3.4583    0.0000 C   0  0  3  0  0  0  0  0  0  0  0  0
   -6.5042    0.6000    0.0000 C   0  0  0  0  0  0  0  0  0  0  0  0
   -8.9875    2.0333    0.0000 C   0  0  0  0  0  0  0  0  0  0  0  0
   -8.1917    0.6000    0.0000 N   0  0  0  0  0  0  0  0  0  0  0  0
   -8.1917    3.4583    0.0000 N   0  0  0  0  0  0  0  0  0  0  0  0
   -5.6958    4.8792    0.0000 C   0  0  0  0  0  0  0  0  0  0  0  0
   -4.0625    2.0333    0.0000 C   0  0  0  0  0  0  0  0  0  0  0  0
   -6.5042    6.3000    0.0000 C   0  0  0  0  0  0  0  0  0  0  0  0
   -0.8125   -0.7792    0.0000 C   0  0  0  0  0  0  0  0  0  0  0  0
   -8.1500    6.3000    0.0000 O   0  0  0  0  0  0  0  0  0  0  0  0
   -3.2458    0.6208    0.0000 O   0  0  0  0  0  0  0  0  0  0  0  0
   -1.4500   -2.3042    0.0000 O   0  0  0  0  0  0  0  0  0  0  0  0
  -10.6792    2.0333    0.0000 O   0  0  0  0  0  0  0  0  0  0  0  0
   -3.2458    3.4583    0.0000 O   0  0  0  0  0  0  0  0  0  0  0  0
    0.8000   -0.9042    0.0000 C   0  0  0  0  0  0  0  0  0  0  0  0
   -0.2208   -3.3875    0.0000 C   0  0  0  0  0  0  0  0  0  0  0  0
    1.1875   -2.5375    0.0000 C   0  0  0  0  0  0  0  0  0  0  0  0
   -1.6208    0.6208    0.0000 C   0  0  0  0  0  0  0  0  0  0  0  0
   -5.6583   -0.8542    0.0000 C   0  0  0  0  0  0  0  0  0  0  0  0
   -4.0000    4.8792    0.0000 C   0  0  0  0  0  0  0  0  0  0  0  0
   -8.9417    7.7000    0.0000 C   0  0  3  0  0  0  0  0  0  0  0  0
   -5.6958    7.7292    0.0000 C   0  0  0  0  0  0  0  0  0  0  0  0
  -10.6000    7.7000    0.0000 C   0  0  0  0  0  0  0  0  0  0  0  0
   -8.0917    9.1000    0.0000 C   0  0  0  0  0  0  0  0  0  0  0  0
   -3.1708    6.3000    0.0000 C   0  0  0  0  0  0  0  0  0  0  0  0
   -4.0000    7.7292    0.0000 C   0  0  0  0  0  0  0  0  0  0  0  0
  2  1  1  0  0  0  0
  3  1  2  0  0  0  0
  4  5  1  0  0  0  0
  5  3  1  0  0  0  0
  6  2  1  0  0  0  0
  7  2  1  0  0  0  0
  8  1  1  0  0  0  0
  9  7  1  0  0  0  0
 10 19  1  0  0  0  0
 11  9  1  0  0  0  0
 12  8  1  0  0  0  0
 13 10  1  0  0  0  0
 14  4  2  0  0  0  0
 15  8  2  0  0  0  0
 16 10  2  0  0  0  0
 17 13  1  0  0  0  0
 18 16  1  0  0  0  0
 19 12  1  0  0  0  0
 20  3  1  0  0  0  0
 21  7  2  0  0  0  0
 22 11  1  0  0  0  0
 23  9  2  0  0  0  0
 24 22  1  0  0  0  0
 25 22  1  0  0  0  0
 26 21  1  0  0  0  0
 27 26  2  0  0  0  0
  4  6  1  0  0  0  0
 23 27  1  0  0  0  0
 18 17  2  0  0  0  0
M  END
> <#>
1801

> <PLATE>
LAT023

> <ROW>
A

> <COL>
7

> <COORD>
A07

> <LATID>
LAT023A07

> <Supplier>
Chembridge

> <Suplier_CAT#>
5615466

> <Name>
Novel

> <Sec_Name>
186_C04

> <Concentration_(mM)>
2.5

> <IC50_(µM)>
4

> <Yeast_Active?>
-

> <Pubchem_CID>
1036133

$$$$
