
  -ISIS-  08130814242D

 23 25  0  0  0  0  0  0  0  0999 V2000
    0.1167    0.5833    0.0000 C   0  0  0  0  0  0  0  0  0  0  0  0
   -0.4625    1.4000    0.0000 C   0  0  0  0  0  0  0  0  0  0  0  0
   -1.4208    1.1000    0.0000 C   0  0  0  0  0  0  0  0  0  0  0  0
   -0.4625   -0.2375    0.0000 S   0  0  0  0  0  0  0  0  0  0  0  0
   -1.4208    0.0833    0.0000 C   0  0  0  0  0  0  0  0  0  0  0  0
    1.1542    0.5625    0.0000 C   0  0  0  0  0  0  0  0  0  0  0  0
   -2.3000    1.6000    0.0000 C   0  0  0  0  0  0  0  0  0  0  0  0
   -2.3000   -0.4375    0.0000 N   0  0  0  0  0  0  0  0  0  0  0  0
    1.6542    1.4458    0.0000 N   0  0  0  0  0  0  0  0  0  0  0  0
   -2.3000    2.6208    0.0000 N   0  0  3  0  0  0  0  0  0  0  0  0
   -0.1208    2.3625    0.0000 N   0  0  0  0  0  0  0  0  0  0  0  0
    1.6542   -0.3375    0.0000 O   0  0  0  0  0  0  0  0  0  0  0  0
   -3.2000    1.1000    0.0000 C   0  0  0  0  0  0  0  0  0  0  0  0
    1.1542    2.3458    0.0000 C   0  0  0  0  0  0  0  0  0  0  0  0
   -3.2000    0.0833    0.0000 C   0  0  0  0  0  0  0  0  0  0  0  0
    1.6792    3.2208    0.0000 C   0  0  0  0  0  0  0  0  0  0  0  0
   -1.4208    3.1458    0.0000 C   0  0  0  0  0  0  0  0  0  0  0  0
   -3.1833    3.1458    0.0000 C   0  0  0  0  0  0  0  0  0  0  0  0
    1.1542    4.0917    0.0000 C   0  0  0  0  0  0  0  0  0  0  0  0
    2.7000    3.2083    0.0000 C   0  0  0  0  0  0  0  0  0  0  0  0
    1.6792    4.9792    0.0000 C   0  0  0  0  0  0  0  0  0  0  0  0
    3.2000    4.0792    0.0000 C   0  0  0  0  0  0  0  0  0  0  0  0
    2.7000    4.9792    0.0000 C   0  0  0  0  0  0  0  0  0  0  0  0
  2  1  2  0  0  0  0
  3  2  1  0  0  0  0
  4  1  1  0  0  0  0
  5  4  1  0  0  0  0
  6  1  1  0  0  0  0
  7  3  1  0  0  0  0
  8  5  1  0  0  0  0
  9  6  1  0  0  0  0
 10  7  1  0  0  0  0
 11  2  1  0  0  0  0
 12  6  2  0  0  0  0
 13  7  2  0  0  0  0
 14  9  1  0  0  0  0
 15  8  2  0  0  0  0
 16 14  1  0  0  0  0
 17 10  1  0  0  0  0
 18 10  1  0  0  0  0
 19 16  1  0  0  0  0
 20 16  2  0  0  0  0
 21 19  2  0  0  0  0
 22 20  1  0  0  0  0
 23 22  2  0  0  0  0
  3  5  2  0  0  0  0
 13 15  1  0  0  0  0
 21 23  1  0  0  0  0
M  END
> <#>
1759

> <PLATE>
LAT022

> <ROW>
G

> <COL>
11

> <COORD>
G11

> <LATID>
LAT022G11

> <Supplier>
Chembridge

> <Suplier_CAT#>
5474303

> <Name>
Novel

> <Sec_Name>
136_F09

> <Concentration_(mM)>
2.5

> <IC50_(µM)>
11

> <Yeast_Active?>
-

> <Pubchem_CID>
867425

$$$$
