
  -ISIS-  08130814242D

 23 25  0  0  0  0  0  0  0  0999 V2000
    3.6042    0.9833    0.0000 N   0  3  0  0  0  0  0  0  0  0  0  0
    3.2292    1.6333    0.0000 C   0  0  0  0  0  0  0  0  0  0  0  0
    3.6042    2.2833    0.0000 C   0  0  0  0  0  0  0  0  0  0  0  0
    3.2292    2.9333    0.0000 C   0  0  0  0  0  0  0  0  0  0  0  0
    2.1042    3.5833    0.0000 N   0  0  3  0  0  0  0  0  0  0  0  0
    2.4792    2.9333    0.0000 C   0  0  0  0  0  0  0  0  0  0  0  0
    2.4792    1.6333    0.0000 C   0  0  0  0  0  0  0  0  0  0  0  0
    4.3542    2.2833    0.0000 N   0  0  0  0  0  0  0  0  0  0  0  0
    3.2292    0.3333    0.0000 O   0  5  0  0  0  0  0  0  0  0  0  0
    4.3542    0.9833    0.0000 O   0  0  0  0  0  0  0  0  0  0  0  0
    2.1042    2.2833    0.0000 C   0  0  0  0  0  0  0  0  0  0  0  0
    1.3542    4.8667    0.0000 N   0  0  0  0  0  0  0  0  0  0  0  0
    5.8542    2.2833    0.0000 N   0  0  0  0  0  0  0  0  0  0  0  0
    4.7292    2.9333    0.0000 C   0  0  0  0  0  0  0  0  0  0  0  0
    5.4792    2.9333    0.0000 C   0  0  0  0  0  0  0  0  0  0  0  0
    1.3542    3.5833    0.0000 C   0  0  0  0  0  0  0  0  0  0  0  0
    2.4792    4.2167    0.0000 C   0  0  0  0  0  0  0  0  0  0  0  0
    2.1042    4.8667    0.0000 C   0  0  0  0  0  0  0  0  0  0  0  0
    0.9792    4.2167    0.0000 C   0  0  0  0  0  0  0  0  0  0  0  0
    6.6042    2.2833    0.0000 C   0  0  0  0  0  0  0  0  0  0  0  0
    5.8542    3.5833    0.0000 C   0  0  0  0  0  0  0  0  0  0  0  0
    6.9792    2.9333    0.0000 C   0  0  0  0  0  0  0  0  0  0  0  0
    6.6042    3.5833    0.0000 C   0  0  0  0  0  0  0  0  0  0  0  0
  2  1  1  0  0  0  0
  3  2  2  0  0  0  0
  4  3  1  0  0  0  0
  5  6  1  0  0  0  0
  6 11  1  0  0  0  0
  7  2  1  0  0  0  0
  8  3  1  0  0  0  0
  9  1  1  0  0  0  0
 10  1  2  0  0  0  0
 11  7  2  0  0  0  0
 12 18  1  0  0  0  0
 13 15  1  0  0  0  0
 14  8  1  0  0  0  0
 15 14  1  0  0  0  0
 16  5  1  0  0  0  0
 17  5  1  0  0  0  0
 18 17  1  0  0  0  0
 19 16  1  0  0  0  0
 20 13  2  0  0  0  0
 21 15  2  0  0  0  0
 22 23  2  0  0  0  0
 23 21  1  0  0  0  0
  4  6  2  0  0  0  0
 12 19  1  0  0  0  0
 22 20  1  0  0  0  0
M  CHG  2   1   1   9  -1
M  END
> <#>
1523

> <PLATE>
LAT020

> <ROW>
C

> <COL>
2

> <COORD>
C02

> <LATID>
LAT020C02

> <Supplier>
Chembridge

> <Suplier_CAT#>
7941834

> <Name>
Novel

> <Concentration_(mM)>
2.5

> <IC50_(µM)>
inactive

> <Yeast_Active?>
-

> <Pubchem_CID>
2969876

$$$$
