
  -ISIS-  08130814242D

 30 32  0  0  0  0  0  0  0  0999 V2000
    4.2417   -7.3042    0.0000 S   0  0  3  0  0  0  0  0  0  0  0  0
    4.9625   -6.8917    0.0000 C   0  0  0  0  0  0  0  0  0  0  0  0
    4.6542   -8.0167    0.0000 O   0  0  0  0  0  0  0  0  0  0  0  0
    3.8417   -6.5875    0.0000 O   0  0  0  0  0  0  0  0  0  0  0  0
    8.5292   -5.6417    0.0000 C   0  0  0  0  0  0  0  0  0  0  0  0
    3.5292   -7.7125    0.0000 N   0  0  0  0  0  0  0  0  0  0  0  0
    9.2500   -6.0500    0.0000 N   0  0  0  0  0  0  0  0  0  0  0  0
   10.6542   -6.8792    0.0000 N   0  0  0  0  0  0  0  0  0  0  0  0
    8.5292   -4.8167    0.0000 O   0  0  0  0  0  0  0  0  0  0  0  0
    4.9625   -6.0625    0.0000 C   0  0  0  0  0  0  0  0  0  0  0  0
    5.6750   -7.3042    0.0000 C   0  0  0  0  0  0  0  0  0  0  0  0
   10.6667   -6.0542    0.0000 C   0  0  0  0  0  0  0  0  0  0  0  0
    7.8167   -6.0542    0.0000 C   0  0  0  0  0  0  0  0  0  0  0  0
    9.9542   -5.6417    0.0000 C   0  0  0  0  0  0  0  0  0  0  0  0
    6.3917   -6.0625    0.0000 C   0  0  0  0  0  0  0  0  0  0  0  0
    5.6750   -5.6500    0.0000 C   0  0  0  0  0  0  0  0  0  0  0  0
    6.3917   -6.8917    0.0000 C   0  0  0  0  0  0  0  0  0  0  0  0
    7.1042   -5.6417    0.0000 C   0  0  0  0  0  0  0  0  0  0  0  0
    2.8167   -7.2917    0.0000 C   0  0  0  0  0  0  0  0  0  0  0  0
    1.3875   -7.2792    0.0000 C   0  0  0  0  0  0  0  0  0  0  0  0
   11.3667   -7.2875    0.0000 C   0  0  0  0  0  0  0  0  0  0  0  0
    2.1000   -7.6917    0.0000 C   0  0  0  0  0  0  0  0  0  0  0  0
   11.3667   -5.6417    0.0000 C   0  0  0  0  0  0  0  0  0  0  0  0
    1.4000   -6.4500    0.0000 C   0  0  0  0  0  0  0  0  0  0  0  0
    0.6750   -7.6792    0.0000 C   0  0  0  0  0  0  0  0  0  0  0  0
   12.0792   -6.8750    0.0000 C   0  0  0  0  0  0  0  0  0  0  0  0
    0.6917   -6.0292    0.0000 C   0  0  0  0  0  0  0  0  0  0  0  0
   -0.0333   -7.2667    0.0000 C   0  0  0  0  0  0  0  0  0  0  0  0
   12.0792   -6.0500    0.0000 C   0  0  0  0  0  0  0  0  0  0  0  0
   -0.0333   -6.4375    0.0000 C   0  0  0  0  0  0  0  0  0  0  0  0
  2  1  1  0  0  0  0
  3  1  2  0  0  0  0
  4  1  2  0  0  0  0
  5 13  1  0  0  0  0
  6  1  1  0  0  0  0
  7  5  1  0  0  0  0
  8 12  2  0  0  0  0
  9  5  2  0  0  0  0
 10  2  2  0  0  0  0
 11  2  1  0  0  0  0
 12 14  1  0  0  0  0
 13 18  1  0  0  0  0
 14  7  1  0  0  0  0
 15 17  1  0  0  0  0
 16 10  1  0  0  0  0
 17 11  2  0  0  0  0
 18 15  1  0  0  0  0
 19  6  1  0  0  0  0
 20 22  1  0  0  0  0
 21  8  1  0  0  0  0
 22 19  1  0  0  0  0
 23 12  1  0  0  0  0
 24 20  2  0  0  0  0
 25 20  1  0  0  0  0
 26 29  1  0  0  0  0
 27 24  1  0  0  0  0
 28 25  2  0  0  0  0
 29 23  2  0  0  0  0
 30 28  1  0  0  0  0
 15 16  2  0  0  0  0
 27 30  2  0  0  0  0
 26 21  2  0  0  0  0
M  END
> <#>
1430

> <PLATE>
LAT018

> <ROW>
F

> <COL>
10

> <COORD>
F10

> <LATID>
LAT018F10

> <Supplier>
Chembridge

> <Suplier_CAT#>
7815872

> <Name>
Novel

> <Concentration_(mM)>
2.5

> <IC50_(µM)>
>100

> <Yeast_Active?>
-

> <Pubchem_CID>
1297951

$$$$
