
  -ISIS-  08130814242D

 24 25  0  0  0  0  0  0  0  0999 V2000
    4.4167   -1.6542    0.0000 C   0  0  0  0  0  0  0  0  0  0  0  0
    5.1292   -1.2375    0.0000 C   0  0  0  0  0  0  0  0  0  0  0  0
    4.4167   -2.4792    0.0000 C   0  0  0  0  0  0  0  0  0  0  0  0
    5.8500   -1.6417    0.0000 C   0  0  0  0  0  0  0  0  0  0  0  0
    3.7167   -2.8917    0.0000 C   0  0  0  0  0  0  0  0  0  0  0  0
    3.7042   -1.2417    0.0000 C   0  0  0  0  0  0  0  0  0  0  0  0
    7.2792   -1.6417    0.0000 C   0  0  0  0  0  0  0  0  0  0  0  0
    7.9917   -1.2250    0.0000 C   0  0  0  0  0  0  0  0  0  0  0  0
    6.5625   -1.2292    0.0000 C   0  0  0  0  0  0  0  0  0  0  0  0
    5.1292   -0.4125    0.0000 O   0  0  0  0  0  0  0  0  0  0  0  0
    6.5542   -0.4042    0.0000 O   0  0  0  0  0  0  0  0  0  0  0  0
    2.9917   -2.4792    0.0000 C   0  0  0  0  0  0  0  0  0  0  0  0
    8.7042   -1.6375    0.0000 C   0  0  0  0  0  0  0  0  0  0  0  0
    5.1375   -2.8917    0.0000 O   0  0  0  0  0  0  0  0  0  0  0  0
    2.9917   -1.6542    0.0000 C   0  0  0  0  0  0  0  0  0  0  0  0
   10.1375   -2.4542    0.0000 C   0  0  0  0  0  0  0  0  0  0  0  0
    8.7042   -2.4625    0.0000 C   0  0  0  0  0  0  0  0  0  0  0  0
    9.4125   -1.2167    0.0000 C   0  0  0  0  0  0  0  0  0  0  0  0
   10.1292   -1.6250    0.0000 C   0  0  0  0  0  0  0  0  0  0  0  0
    9.4167   -2.8667    0.0000 C   0  0  0  0  0  0  0  0  0  0  0  0
    2.2792   -2.9000    0.0000 O   0  0  0  0  0  0  0  0  0  0  0  0
   10.8542   -2.8667    0.0000 O   0  0  0  0  0  0  0  0  0  0  0  0
   10.8542   -3.6917    0.0000 C   0  0  0  0  0  0  0  0  0  0  0  0
    1.5625   -2.4875    0.0000 C   0  0  0  0  0  0  0  0  0  0  0  0
  2  1  1  0  0  0  0
  3  1  1  0  0  0  0
  4  2  1  0  0  0  0
  5  3  2  0  0  0  0
  6  1  2  0  0  0  0
  7  9  1  0  0  0  0
  8  7  2  0  0  0  0
  9  4  1  0  0  0  0
 10  2  2  0  0  0  0
 11  9  2  0  0  0  0
 12 15  2  0  0  0  0
 13  8  1  0  0  0  0
 14  3  1  0  0  0  0
 15  6  1  0  0  0  0
 16 19  1  0  0  0  0
 17 13  2  0  0  0  0
 18 13  1  0  0  0  0
 19 18  2  0  0  0  0
 20 17  1  0  0  0  0
 21 12  1  0  0  0  0
 22 16  1  0  0  0  0
 23 22  1  0  0  0  0
 24 21  1  0  0  0  0
 12  5  1  0  0  0  0
 16 20  2  0  0  0  0
M  END
> <#>
1348

> <PLATE>
LAT017

> <ROW>
D

> <COL>
10

> <COORD>
D10

> <LATID>
LAT017D10

> <Supplier>
Chembridge

> <Suplier_CAT#>
7467336

> <Name>
Novel

> <Concentration_(mM)>
2.5

> <IC50_(µM)>
>100

> <Yeast_Active?>
-

> <Pubchem_CID>
755075

$$$$
