
  -ISIS-  08130814242D

 21 23  0  0  0  0  0  0  0  0999 V2000
   -1.2625    1.6500    0.0000 S   0  0  3  0  0  0  0  0  0  0  0  0
   -0.3208    1.6500    0.0000 C   0  0  0  0  0  0  0  0  0  0  0  0
   -2.2000    1.6500    0.0000 N   0  0  0  0  0  0  0  0  0  0  0  0
    0.1542    0.8333    0.0000 C   0  0  0  0  0  0  0  0  0  0  0  0
   -1.2625    0.7125    0.0000 O   0  0  0  0  0  0  0  0  0  0  0  0
   -1.2625    2.5958    0.0000 O   0  0  0  0  0  0  0  0  0  0  0  0
   -4.0833    0.0125    0.0000 N   0  0  0  0  0  0  0  0  0  0  0  0
   -2.6625    0.8333    0.0000 C   0  0  0  0  0  0  0  0  0  0  0  0
    1.1167    0.8333    0.0000 C   0  0  0  0  0  0  0  0  0  0  0  0
   -3.6208    0.8333    0.0000 C   0  0  0  0  0  0  0  0  0  0  0  0
    0.1542    2.4708    0.0000 C   0  0  0  0  0  0  0  0  0  0  0  0
   -0.3125    0.0125    0.0000 C   0  0  0  0  0  0  0  0  0  0  0  0
    1.1000    2.4708    0.0000 C   0  0  0  0  0  0  0  0  0  0  0  0
   -5.0208    0.0125    0.0000 C   0  0  0  0  0  0  0  0  0  0  0  0
    1.5792    1.6500    0.0000 C   0  0  0  0  0  0  0  0  0  0  0  0
    1.5875    0.0125    0.0000 C   0  0  0  0  0  0  0  0  0  0  0  0
   -4.0833    1.6500    0.0000 C   0  0  0  0  0  0  0  0  0  0  0  0
    0.1542   -0.8167    0.0000 C   0  0  0  0  0  0  0  0  0  0  0  0
   -5.5000    0.8333    0.0000 C   0  0  0  0  0  0  0  0  0  0  0  0
    1.1042   -0.8042    0.0000 C   0  0  0  0  0  0  0  0  0  0  0  0
   -5.0458    1.6500    0.0000 C   0  0  0  0  0  0  0  0  0  0  0  0
  2  1  1  0  0  0  0
  3  1  1  0  0  0  0
  4  2  1  0  0  0  0
  5  1  2  0  0  0  0
  6  1  2  0  0  0  0
  7 10  1  0  0  0  0
  8  3  1  0  0  0  0
  9  4  2  0  0  0  0
 10  8  1  0  0  0  0
 11  2  2  0  0  0  0
 12  4  1  0  0  0  0
 13 11  1  0  0  0  0
 14  7  2  0  0  0  0
 15 13  2  0  0  0  0
 16  9  1  0  0  0  0
 17 10  2  0  0  0  0
 18 12  2  0  0  0  0
 19 21  2  0  0  0  0
 20 18  1  0  0  0  0
 21 17  1  0  0  0  0
  9 15  1  0  0  0  0
 16 20  2  0  0  0  0
 14 19  1  0  0  0  0
M  END
> <#>
1918

> <PLATE>
LAT024

> <ROW>
F

> <COL>
11

> <COORD>
F11

> <LATID>
LAT024F11

> <Supplier>
Chembridge

> <Suplier_CAT#>
5546830

> <Name>
Novel

> <Concentration_(mM)>
2.5

> <IC50_(µM)>
30

> <Yeast_Active?>
-

> <Pubchem_CID>
804665

$$$$
