
  -ISIS-  08130814242D

 23 25  0  0  0  0  0  0  0  0999 V2000
   -1.0208    2.1125    0.0000 C   0  0  0  0  0  0  0  0  0  0  0  0
    2.1167   -3.4000    0.0000 N   0  3  0  0  0  0  0  0  0  0  0  0
   -1.1458    3.3333    0.0000 N   0  0  0  0  0  0  0  0  0  0  0  0
   -2.1458    1.6333    0.0000 S   0  0  0  0  0  0  0  0  0  0  0  0
    2.1167   -2.1875    0.0000 C   0  0  0  0  0  0  0  0  0  0  0  0
    1.0792   -0.3500    0.0000 C   0  0  0  0  0  0  0  0  0  0  0  0
   -2.9458    2.5333    0.0000 C   0  0  0  0  0  0  0  0  0  0  0  0
   -2.3458    3.5958    0.0000 C   0  0  0  0  0  0  0  0  0  0  0  0
    3.1792   -1.5875    0.0000 C   0  0  0  0  0  0  0  0  0  0  0  0
    3.2000   -0.3667    0.0000 C   0  0  0  0  0  0  0  0  0  0  0  0
    0.0375    1.4958    0.0000 N   0  0  0  0  0  0  0  0  0  0  0  0
    2.1292    0.2500    0.0000 C   0  0  0  0  0  0  0  0  0  0  0  0
    1.0542   -1.5667    0.0000 C   0  0  0  0  0  0  0  0  0  0  0  0
    0.0167    0.2500    0.0000 C   0  0  0  0  0  0  0  0  0  0  0  0
   -4.1625    2.5333    0.0000 C   0  0  0  0  0  0  0  0  0  0  0  0
    1.1167   -4.1042    0.0000 O   0  5  0  0  0  0  0  0  0  0  0  0
    3.1167   -4.0667    0.0000 O   0  0  0  0  0  0  0  0  0  0  0  0
   -2.9458    4.6500    0.0000 C   0  0  0  0  0  0  0  0  0  0  0  0
   -4.7833    3.5958    0.0000 C   0  0  0  0  0  0  0  0  0  0  0  0
    4.2542    0.2208    0.0000 Br  0  0  0  0  0  0  0  0  0  0  0  0
    2.1542    1.4708    0.0000 O   0  0  0  0  0  0  0  0  0  0  0  0
   -4.1625    4.6500    0.0000 C   0  0  0  0  0  0  0  0  0  0  0  0
   -5.9958    3.5958    0.0000 Br  0  0  0  0  0  0  0  0  0  0  0  0
  2  5  1  0  0  0  0
  3  1  2  0  0  0  0
  4  1  1  0  0  0  0
  5 13  2  0  0  0  0
  6 14  1  0  0  0  0
  7  4  1  0  0  0  0
  8  3  1  0  0  0  0
  9  5  1  0  0  0  0
 10 12  1  0  0  0  0
 11  1  1  0  0  0  0
 12  6  2  0  0  0  0
 13  6  1  0  0  0  0
 14 11  2  0  0  0  0
 15  7  1  0  0  0  0
 16  2  1  0  0  0  0
 17  2  2  0  0  0  0
 18  8  1  0  0  0  0
 19 15  2  0  0  0  0
 20 10  1  0  0  0  0
 21 12  1  0  0  0  0
 22 18  2  0  0  0  0
 23 19  1  0  0  0  0
  7  8  2  0  0  0  0
 19 22  1  0  0  0  0
 10  9  2  0  0  0  0
M  CHG  2   2   1  16  -1
M  END
> <#>
712

> <PLATE>
LAT009

> <ROW>
H

> <COL>
10

> <COORD>
H10

> <LATID>
LAT009H10

> <Supplier>
Chembridge

> <Suplier_CAT#>
5561316

> <Name>
Novel

> <Sec_Name>
171_E07

> <Concentration_(mM)>
2.5

> <IC50_(µM)>
18

> <Yeast_Active?>
-

> <Pubchem_CID>
2250266

$$$$
