
  -ISIS-  08130814242D

 21 22  0  0  0  0  0  0  0  0999 V2000
   -0.1208   -0.3042    0.0000 C   0  0  0  0  0  0  0  0  0  0  0  0
    1.3042    0.5333    0.0000 N   0  0  0  0  0  0  0  0  0  0  0  0
    2.7167   -0.3292    0.0000 C   0  0  0  0  0  0  0  0  0  0  0  0
    0.3500    0.5333    0.0000 N   0  0  0  0  0  0  0  0  0  0  0  0
    0.3500   -1.1167    0.0000 O   0  0  0  0  0  0  0  0  0  0  0  0
    3.1875    0.4958    0.0000 C   0  0  0  0  0  0  0  0  0  0  0  0
    1.8000   -0.3292    0.0000 C   0  0  0  0  0  0  0  0  0  0  0  0
   -1.0833   -0.3042    0.0000 C   0  0  0  0  0  0  0  0  0  0  0  0
   -1.5458    0.5125    0.0000 O   0  0  0  0  0  0  0  0  0  0  0  0
   -2.4708    0.5125    0.0000 C   0  0  0  0  0  0  0  0  0  0  0  0
   -4.3500    0.5125    0.0000 C   0  0  0  0  0  0  0  0  0  0  0  0
    2.7292    1.3125    0.0000 Br  0  0  0  0  0  0  0  0  0  0  0  0
   -5.2958    0.5125    0.0000 F   0  0  0  0  0  0  0  0  0  0  0  0
   -2.9500   -0.3000    0.0000 C   0  0  0  0  0  0  0  0  0  0  0  0
   -2.9458    1.3208    0.0000 C   0  0  0  0  0  0  0  0  0  0  0  0
   -3.8708    1.3208    0.0000 C   0  0  0  0  0  0  0  0  0  0  0  0
   -3.8833   -0.3000    0.0000 C   0  0  0  0  0  0  0  0  0  0  0  0
    3.1875   -1.1500    0.0000 C   0  0  0  0  0  0  0  0  0  0  0  0
    4.1167    0.4958    0.0000 C   0  0  0  0  0  0  0  0  0  0  0  0
    4.1500   -1.1500    0.0000 C   0  0  0  0  0  0  0  0  0  0  0  0
    4.6167   -0.3292    0.0000 C   0  0  0  0  0  0  0  0  0  0  0  0
  2  4  1  0  0  0  0
  3  7  1  0  0  0  0
  4  1  1  0  0  0  0
  5  1  2  0  0  0  0
  6  3  1  0  0  0  0
  7  2  2  0  0  0  0
  8  1  1  0  0  0  0
  9  8  1  0  0  0  0
 10  9  1  0  0  0  0
 11 16  1  0  0  0  0
 12  6  1  0  0  0  0
 13 11  1  0  0  0  0
 14 10  2  0  0  0  0
 15 10  1  0  0  0  0
 16 15  2  0  0  0  0
 17 14  1  0  0  0  0
 18  3  2  0  0  0  0
 19  6  2  0  0  0  0
 20 18  1  0  0  0  0
 21 20  2  0  0  0  0
 11 17  2  0  0  0  0
 21 19  1  0  0  0  0
M  END
> <#>
713

> <PLATE>
LAT009

> <ROW>
A

> <COL>
11

> <COORD>
A11

> <LATID>
LAT009A11

> <Supplier>
Chembridge

> <Suplier_CAT#>
5560828

> <Name>
Novel

> <Sec_Name>
172_D07

> <Concentration_(mM)>
2.5

> <IC50_(µM)>
0.72

> <Yeast_Active?>
-

> <Pubchem_CID>
1368969

$$$$
