
  -ISIS-  08130814242D

 20 21  0  0  0  0  0  0  0  0999 V2000
    0.1000   -0.2417    0.0000 S   0  0  3  0  0  0  0  0  0  0  0  0
    0.9250   -0.2542    0.0000 C   0  0  0  0  0  0  0  0  0  0  0  0
    1.3167   -0.9792    0.0000 C   0  0  0  0  0  0  0  0  0  0  0  0
    1.3500    0.4458    0.0000 C   0  0  0  0  0  0  0  0  0  0  0  0
   -0.7208   -0.2375    0.0000 N   0  0  0  0  0  0  0  0  0  0  0  0
    2.1417   -1.0000    0.0000 C   0  0  0  0  0  0  0  0  0  0  0  0
    2.5750   -0.2917    0.0000 C   0  0  0  0  0  0  0  0  0  0  0  0
    2.1667    0.4250    0.0000 C   0  0  0  0  0  0  0  0  0  0  0  0
    0.5292    0.4625    0.0000 O   0  0  0  0  0  0  0  0  0  0  0  0
    0.5000   -0.9625    0.0000 O   0  0  0  0  0  0  0  0  0  0  0  0
   -2.3708   -0.2042    0.0000 N   0  0  0  0  0  0  0  0  0  0  0  0
   -1.1333    0.4958    0.0000 C   0  0  0  0  0  0  0  0  0  0  0  0
   -1.9583    0.5000    0.0000 C   0  0  0  0  0  0  0  0  0  0  0  0
    0.8917   -1.6917    0.0000 Cl  0  0  0  0  0  0  0  0  0  0  0  0
    3.4000   -0.2917    0.0000 Cl  0  0  0  0  0  0  0  0  0  0  0  0
    2.5917    1.1333    0.0000 C   0  0  0  0  0  0  0  0  0  0  0  0
   -3.1958   -0.2042    0.0000 C   0  0  0  0  0  0  0  0  0  0  0  0
   -2.3625    1.2208    0.0000 C   0  0  0  0  0  0  0  0  0  0  0  0
   -3.6083    0.5208    0.0000 C   0  0  0  0  0  0  0  0  0  0  0  0
   -3.1875    1.2250    0.0000 C   0  0  0  0  0  0  0  0  0  0  0  0
  2  1  1  0  0  0  0
  3  2  2  0  0  0  0
  4  2  1  0  0  0  0
  5  1  1  0  0  0  0
  6  3  1  0  0  0  0
  7  8  1  0  0  0  0
  8  4  2  0  0  0  0
  9  1  2  0  0  0  0
 10  1  2  0  0  0  0
 11 13  1  0  0  0  0
 12  5  1  0  0  0  0
 13 12  1  0  0  0  0
 14  3  1  0  0  0  0
 15  7  1  0  0  0  0
 16  8  1  0  0  0  0
 17 11  2  0  0  0  0
 18 13  2  0  0  0  0
 19 20  2  0  0  0  0
 20 18  1  0  0  0  0
  6  7  2  0  0  0  0
 17 19  1  0  0  0  0
M  END
> <#>
1944

> <PLATE>
LAT025

> <ROW>
H

> <COL>
4

> <COORD>
H04

> <LATID>
LAT025H04

> <Supplier>
Chembridge

> <Suplier_CAT#>
6410317

> <Name>
Novel

> <Concentration_(mM)>
2.5

> <IC50_(µM)>
100

> <Yeast_Active?>
-

> <Pubchem_CID>
775483

$$$$
