
  -ISIS-  08130814242D

 32 35  0  0  0  0  0  0  0  0999 V2000
    0.9000    1.0333    0.0000 C   0  0  0  0  0  0  0  0  0  0  0  0
   -0.1000    1.6208    0.0000 C   0  0  0  0  0  0  0  0  0  0  0  0
    0.5792    1.6208    0.0000 C   0  0  3  0  0  0  0  0  0  0  0  0
   -0.4458    1.0333    0.0000 C   0  0  0  0  0  0  0  0  0  0  0  0
    0.5792    0.4500    0.0000 C   0  0  0  0  0  0  0  0  0  0  0  0
   -0.1000    0.4500    0.0000 N   0  0  0  0  0  0  0  0  0  0  0  0
   -0.4458    2.1958    0.0000 C   0  0  0  0  0  0  0  0  0  0  0  0
    2.8375    3.2208    0.0000 N   0  3  0  0  0  0  0  0  0  0  0  0
    1.1542    2.6333    0.0000 C   0  0  0  0  0  0  0  0  0  0  0  0
    1.5792    1.0333    0.0000 C   0  0  0  0  0  0  0  0  0  0  0  0
   -1.1125    1.0333    0.0000 C   0  0  0  0  0  0  0  0  0  0  0  0
   -1.4500    1.6208    0.0000 C   0  0  3  0  0  0  0  0  0  0  0  0
    2.1542    3.2125    0.0000 C   0  0  0  0  0  0  0  0  0  0  0  0
   -1.1125    2.1958    0.0000 C   0  0  0  0  0  0  0  0  0  0  0  0
    1.8375    2.6333    0.0000 C   0  0  0  0  0  0  0  0  0  0  0  0
    3.1792    2.6333    0.0000 O   0  5  0  0  0  0  0  0  0  0  0  0
    3.1667    3.8208    0.0000 O   0  0  0  0  0  0  0  0  0  0  0  0
   -2.1125    1.6208    0.0000 C   0  0  0  0  0  0  0  0  0  0  0  0
   -0.1208    2.7708    0.0000 O   0  0  0  0  0  0  0  0  0  0  0  0
    1.9042    1.6208    0.0000 O   0  0  0  0  0  0  0  0  0  0  0  0
   -2.4500    2.1958    0.0000 C   0  0  0  0  0  0  0  0  0  0  0  0
   -2.4500    1.0333    0.0000 C   0  0  0  0  0  0  0  0  0  0  0  0
    1.9042    0.4125    0.0000 O   0  0  0  0  0  0  0  0  0  0  0  0
   -3.4625    1.6208    0.0000 C   0  0  0  0  0  0  0  0  0  0  0  0
    0.9167   -0.1292    0.0000 C   0  0  0  0  0  0  0  0  0  0  0  0
   -3.1208    1.0333    0.0000 C   0  0  0  0  0  0  0  0  0  0  0  0
   -3.1208    2.1958    0.0000 C   0  0  0  0  0  0  0  0  0  0  0  0
    0.8375    3.2125    0.0000 C   0  0  0  0  0  0  0  0  0  0  0  0
   -4.1458    1.6458    0.0000 Cl  0  0  0  0  0  0  0  0  0  0  0  0
    1.8375    3.7833    0.0000 C   0  0  0  0  0  0  0  0  0  0  0  0
    1.1542    3.7833    0.0000 C   0  0  0  0  0  0  0  0  0  0  0  0
    2.5792    0.4125    0.0000 C   0  0  0  0  0  0  0  0  0  0  0  0
  2  3  1  0  0  0  0
  3  1  1  0  0  0  0
  4  6  1  0  0  0  0
  5  1  2  0  0  0  0
  6  5  1  0  0  0  0
  7  2  1  0  0  0  0
  8 13  1  0  0  0  0
  9  3  1  0  0  0  0
 10  1  1  0  0  0  0
 11  4  1  0  0  0  0
 12 11  1  0  0  0  0
 13 15  1  0  0  0  0
 14  7  1  0  0  0  0
 15  9  2  0  0  0  0
 16  8  1  0  0  0  0
 17  8  2  0  0  0  0
 18 12  1  0  0  0  0
 19  7  2  0  0  0  0
 20 10  2  0  0  0  0
 21 18  2  0  0  0  0
 22 18  1  0  0  0  0
 23 10  1  0  0  0  0
 24 26  1  0  0  0  0
 25  5  1  0  0  0  0
 26 22  2  0  0  0  0
 27 21  1  0  0  0  0
 28  9  1  0  0  0  0
 29 24  1  0  0  0  0
 30 31  1  0  0  0  0
 31 28  2  0  0  0  0
 32 23  1  0  0  0  0
  4  2  2  0  0  0  0
 12 14  1  0  0  0  0
 13 30  2  0  0  0  0
 27 24  2  0  0  0  0
M  CHG  2   8   1  16  -1
M  END
> <#>
2079

> <PLATE>
LAT026

> <ROW>
G

> <COL>
11

> <COORD>
G11

> <LATID>
LAT026G11

> <Supplier>
Chembridge

> <Suplier_CAT#>
5717841

> <Sec_Name>
226_F08

> <Concentration_(mM)>
2.5

> <IC50_(µM)>
>100

> <Yeast_Active?>
-

> <Pubchem_CID>
997883

$$$$
