
  -ISIS-  08130814242D

 37 41  0  0  0  0  0  0  0  0999 V2000
    6.1792   -4.2125    0.0000 C   0  0  0  0  0  0  0  0  0  0  0  0
    5.4625   -4.6042    0.0000 C   0  0  1  0  0  0  0  0  0  0  0  0
    6.1792   -3.3875    0.0000 C   0  0  2  0  0  0  0  0  0  0  0  0
    4.0167   -4.6042    0.0000 C   0  0  2  0  0  0  0  0  0  0  0  0
    4.7250   -4.2125    0.0000 C   0  0  3  0  0  0  0  0  0  0  0  0
    4.0167   -5.4417    0.0000 C   0  0  3  0  0  0  0  0  0  0  0  0
    6.8875   -2.9542    0.0000 C   0  0  1  0  0  0  0  0  0  0  0  0
    5.4625   -5.4167    0.0000 C   0  0  1  0  0  0  0  0  0  0  0  0
    3.3125   -5.8625    0.0000 C   0  0  3  0  0  0  0  0  0  0  0  0
    6.8875   -4.6042    0.0000 C   0  0  0  0  0  0  0  0  0  0  0  0
    7.5875   -3.3875    0.0000 O   0  0  0  0  0  0  0  0  0  0  0  0
    4.7667   -5.8292    0.0000 C   0  0  0  0  0  0  0  0  0  0  0  0
    6.8792   -2.1292    0.0000 C   0  0  0  0  0  0  0  0  0  0  0  0
    7.5875   -4.2125    0.0000 C   0  0  0  0  0  0  0  0  0  0  0  0
    2.6000   -5.4417    0.0000 C   0  0  2  0  0  0  0  0  0  0  0  0
    5.4625   -2.9542    0.0000 C   0  0  0  0  0  0  0  0  0  0  0  0
    4.7250   -3.3875    0.0000 C   0  0  0  0  0  0  0  0  0  0  0  0
    3.3125   -4.2125    0.0000 C   0  0  0  0  0  0  0  0  0  0  0  0
    6.1917   -5.7792    0.0000 O   0  0  0  0  0  0  0  0  0  0  0  0
    1.8792   -5.8500    0.0000 O   0  0  0  0  0  0  0  0  0  0  0  0
    6.2417   -6.6000    0.0000 C   0  0  0  0  0  0  0  0  0  0  0  0
    1.1667   -5.4375    0.0000 C   0  0  0  0  0  0  0  0  0  0  0  0
    7.4292   -1.5417    0.0000 C   0  0  0  0  0  0  0  0  0  0  0  0
    6.1417   -1.7542    0.0000 C   0  0  0  0  0  0  0  0  0  0  0  0
    7.0542   -0.8042    0.0000 O   0  0  0  0  0  0  0  0  0  0  0  0
    2.6000   -4.6042    0.0000 C   0  0  0  0  0  0  0  0  0  0  0  0
    8.3250   -4.6375    0.0000 O   0  0  0  0  0  0  0  0  0  0  0  0
    6.2417   -0.9625    0.0000 C   0  0  0  0  0  0  0  0  0  0  0  0
    1.1625   -4.6125    0.0000 O   0  0  0  0  0  0  0  0  0  0  0  0
    5.5625   -7.0542    0.0000 O   0  0  0  0  0  0  0  0  0  0  0  0
    5.4625   -3.6292    0.0000 C   0  0  0  0  0  0  0  0  0  0  0  0
    6.1792   -2.5542    0.0000 C   0  0  0  0  0  0  0  0  0  0  0  0
    4.0167   -3.6792    0.0000 C   0  0  0  0  0  0  0  0  0  0  0  0
    2.6000   -6.3000    0.0000 C   0  0  0  0  0  0  0  0  0  0  0  0
    4.0167   -6.3000    0.0000 C   0  0  0  0  0  0  0  0  0  0  0  0
    6.9875   -6.9667    0.0000 C   0  0  0  0  0  0  0  0  0  0  0  0
    0.4542   -5.8542    0.0000 C   0  0  0  0  0  0  0  0  0  0  0  0
  2  1  1  0  0  0  0
  3  1  1  0  0  0  0
  4  5  1  0  0  0  0
  5  2  1  0  0  0  0
  6 12  1  0  0  0  0
  7  3  1  0  0  0  0
  8  2  1  0  0  0  0
  9  6  1  0  0  0  0
 10  1  2  0  0  0  0
 11 14  1  0  0  0  0
 12  8  1  0  0  0  0
  7 13  1  6  0  0  0
 14 10  1  0  0  0  0
 15  9  1  0  0  0  0
 16  3  1  0  0  0  0
 17 16  1  0  0  0  0
 18  4  1  0  0  0  0
  8 19  1  6  0  0  0
 15 20  1  6  0  0  0
 21 19  1  0  0  0  0
 22 20  1  0  0  0  0
 23 13  2  0  0  0  0
 24 13  1  0  0  0  0
 25 23  1  0  0  0  0
 26 18  1  0  0  0  0
 27 14  2  0  0  0  0
 28 24  2  0  0  0  0
 29 22  2  0  0  0  0
 30 21  2  0  0  0  0
  2 31  1  1  0  0  0
  3 32  1  6  0  0  0
  4 33  1  1  0  0  0
 34  9  1  0  0  0  0
 35  9  1  0  0  0  0
 36 21  1  0  0  0  0
 37 22  1  0  0  0  0
 11  7  1  0  0  0  0
  5 17  1  0  0  0  0
  4  6  1  0  0  0  0
 25 28  1  0  0  0  0
 26 15  1  0  0  0  0
M  END
> <#>
5

> <PLATE>
LAT001

> <ROW>
E

> <COL>
2

> <COORD>
E02

> <LATID>
LAT001E02

> <Supplier>
Microsource

> <Suplier_CAT#>
00100205

> <Name>
3Alpha-Acetoxydihydrodeoxygedunin

> <Concentration_(mM)>
2.5

> <IC50_(µM)>
>100

> <Yeast_Active?>
-

> <Pubchem_CID>
4544837

> <Source>
Natural Product; ex Meliaceae spp

$$$$
