
  -ISIS-  08130814242D

 37 41  0  0  0  0  0  0  0  0999 V2000
    7.5917   -3.3417    0.0000 C   0  0  0  0  0  0  0  0  0  0  0  0
    6.8792   -3.7542    0.0000 C   0  0  1  0  0  0  0  0  0  0  0  0
    7.5917   -2.5167    0.0000 C   0  0  2  0  0  0  0  0  0  0  0  0
    5.4417   -3.7542    0.0000 C   0  0  2  0  0  0  0  0  0  0  0  0
    6.1625   -3.3417    0.0000 C   0  0  3  0  0  0  0  0  0  0  0  0
    5.4417   -4.5792    0.0000 C   0  0  3  0  0  0  0  0  0  0  0  0
    8.3042   -2.1042    0.0000 C   0  0  1  0  0  0  0  0  0  0  0  0
    6.8792   -4.5792    0.0000 C   0  0  1  0  0  0  0  0  0  0  0  0
    4.7292   -4.9917    0.0000 C   0  0  3  0  0  0  0  0  0  0  0  0
    8.3042   -3.7542    0.0000 C   0  0  0  0  0  0  0  0  0  0  0  0
    9.0167   -2.5167    0.0000 O   0  0  0  0  0  0  0  0  0  0  0  0
    6.1667   -4.9917    0.0000 C   0  0  0  0  0  0  0  0  0  0  0  0
    8.3042   -1.2750    0.0000 C   0  0  0  0  0  0  0  0  0  0  0  0
    9.0167   -3.3417    0.0000 C   0  0  0  0  0  0  0  0  0  0  0  0
    4.0167   -4.5792    0.0000 C   0  0  1  0  0  0  0  0  0  0  0  0
    6.8792   -2.1042    0.0000 C   0  0  0  0  0  0  0  0  0  0  0  0
    6.1625   -2.5167    0.0000 C   0  0  0  0  0  0  0  0  0  0  0  0
    4.7292   -3.3417    0.0000 C   0  0  0  0  0  0  0  0  0  0  0  0
    7.6000   -5.0042    0.0000 O   0  0  0  0  0  0  0  0  0  0  0  0
    3.2917   -5.0042    0.0000 O   0  0  0  0  0  0  0  0  0  0  0  0
    8.2625   -5.4042    0.0000 C   0  0  0  0  0  0  0  0  0  0  0  0
    3.3000   -5.8292    0.0000 C   0  0  0  0  0  0  0  0  0  0  0  0
    8.8792   -0.6917    0.0000 C   0  0  0  0  0  0  0  0  0  0  0  0
    7.5792   -0.9000    0.0000 C   0  0  0  0  0  0  0  0  0  0  0  0
    8.5042    0.0333    0.0000 O   0  0  0  0  0  0  0  0  0  0  0  0
    4.0167   -3.7542    0.0000 C   0  0  0  0  0  0  0  0  0  0  0  0
    9.7417   -3.7542    0.0000 O   0  0  0  0  0  0  0  0  0  0  0  0
    7.7125   -0.0792    0.0000 C   0  0  0  0  0  0  0  0  0  0  0  0
    8.2625   -6.1167    0.0000 O   0  0  0  0  0  0  0  0  0  0  0  0
    4.0167   -6.2417    0.0000 O   0  0  0  0  0  0  0  0  0  0  0  0
    6.8542   -2.9917    0.0000 C   0  0  0  0  0  0  0  0  0  0  0  0
    7.5917   -1.6875    0.0000 C   0  0  0  0  0  0  0  0  0  0  0  0
    5.4167   -2.9292    0.0000 C   0  0  0  0  0  0  0  0  0  0  0  0
    5.4500   -5.4042    0.0000 C   0  0  0  0  0  0  0  0  0  0  0  0
    4.0167   -5.4042    0.0000 C   0  0  0  0  0  0  0  0  0  0  0  0
    9.0375   -5.0167    0.0000 C   0  0  0  0  0  0  0  0  0  0  0  0
    2.5875   -6.2417    0.0000 C   0  0  0  0  0  0  0  0  0  0  0  0
  2  1  1  0  0  0  0
  3  1  1  0  0  0  0
  4  5  1  0  0  0  0
  5  2  1  0  0  0  0
  6 12  1  0  0  0  0
  7  3  1  0  0  0  0
  8  2  1  0  0  0  0
  9  6  1  0  0  0  0
 10  1  2  0  0  0  0
 11 14  1  0  0  0  0
 12  8  1  0  0  0  0
  7 13  1  6  0  0  0
 14 10  1  0  0  0  0
 15  9  1  0  0  0  0
 16  3  1  0  0  0  0
 17 16  1  0  0  0  0
 18  4  1  0  0  0  0
  8 19  1  6  0  0  0
 15 20  1  1  0  0  0
 21 19  1  0  0  0  0
 22 20  1  0  0  0  0
 23 13  2  0  0  0  0
 24 13  1  0  0  0  0
 25 23  1  0  0  0  0
 26 18  1  0  0  0  0
 27 14  2  0  0  0  0
 28 24  2  0  0  0  0
 29 21  2  0  0  0  0
 30 22  2  0  0  0  0
  2 31  1  1  0  0  0
  3 32  1  6  0  0  0
  4 33  1  1  0  0  0
 34  9  1  0  0  0  0
 35  9  1  0  0  0  0
 36 21  1  0  0  0  0
 37 22  1  0  0  0  0
  7 11  1  0  0  0  0
 17  5  1  0  0  0  0
  6  4  1  0  0  0  0
 25 28  1  0  0  0  0
 26 15  1  0  0  0  0
M  END
> <#>
4

> <PLATE>
LAT001

> <ROW>
D

> <COL>
2

> <COORD>
D02

> <LATID>
LAT001D02

> <Supplier>
Microsource

> <Suplier_CAT#>
00100201

> <Name>
3-Deoxo-3Beta-Acetoxydeoxydihydrogedunin

> <Concentration_(mM)>
2.5

> <IC50_(µM)>
100

> <Yeast_Active?>
-

> <Pubchem_CID>
4544837

> <Source>
Natural Product; ex Meliaceae spp

$$$$
