
  -ISIS-  08130814242D

 23 25  0  0  0  0  0  0  0  0999 V2000
   -0.5208    2.6208    0.0000 C   0  0  0  0  0  0  0  0  0  0  0  0
    0.4167    2.2208    0.0000 C   0  0  3  0  0  0  0  0  0  0  0  0
   -1.1958    1.8458    0.0000 C   0  0  3  0  0  0  0  0  0  0  0  0
   -0.6625    0.9708    0.0000 C   0  0  3  0  0  0  0  0  0  0  0  0
    0.3292    1.2000    0.0000 C   0  0  3  0  0  0  0  0  0  0  0  0
   -1.0625    0.0250    0.0000 C   0  0  0  0  0  0  0  0  0  0  0  0
    1.1042    0.5333    0.0000 C   0  0  0  0  0  0  0  0  0  0  0  0
   -0.9500    2.6458    0.0000 C   0  0  0  0  0  0  0  0  0  0  0  0
   -0.1458    2.8333    0.0000 C   0  0  0  0  0  0  0  0  0  0  0  0
   -0.7583    3.6125    0.0000 C   0  0  0  0  0  0  0  0  0  0  0  0
   -0.4458   -0.7917    0.0000 N   0  0  0  0  0  0  0  0  0  0  0  0
   -0.6250   -3.4917    0.0000 N   0  0  0  0  0  0  0  0  0  0  0  0
   -2.0833   -0.0917    0.0000 O   0  0  0  0  0  0  0  0  0  0  0  0
    0.9125   -0.4750    0.0000 O   0  0  0  0  0  0  0  0  0  0  0  0
   -0.8458   -1.7292    0.0000 C   0  0  0  0  0  0  0  0  0  0  0  0
   -0.2250   -2.5500    0.0000 C   0  0  0  0  0  0  0  0  0  0  0  0
    2.0667    0.8625    0.0000 O   0  0  0  0  0  0  0  0  0  0  0  0
   -0.0083    4.3042    0.0000 C   0  0  0  0  0  0  0  0  0  0  0  0
   -1.7333    3.9208    0.0000 C   0  0  0  0  0  0  0  0  0  0  0  0
   -0.0083   -4.3042    0.0000 C   0  0  0  0  0  0  0  0  0  0  0  0
    0.7917   -2.4250    0.0000 C   0  0  0  0  0  0  0  0  0  0  0  0
    1.0042   -4.1792    0.0000 C   0  0  0  0  0  0  0  0  0  0  0  0
    1.4042   -3.2417    0.0000 C   0  0  0  0  0  0  0  0  0  0  0  0
  2  1  1  0  0  0  0
  3  1  1  0  0  0  0
  4  3  1  0  0  0  0
  5  2  1  0  0  0  0
  6  4  1  0  0  0  0
  7  5  1  0  0  0  0
  8  3  1  0  0  0  0
  9  2  1  0  0  0  0
 10  1  2  0  0  0  0
 11  6  1  0  0  0  0
 12 16  2  0  0  0  0
 13  6  2  0  0  0  0
 14  7  2  0  0  0  0
 15 11  1  0  0  0  0
 16 15  1  0  0  0  0
 17  7  1  0  0  0  0
 18 10  1  0  0  0  0
 19 10  1  0  0  0  0
 20 12  1  0  0  0  0
 21 16  1  0  0  0  0
 22 23  1  0  0  0  0
 23 21  2  0  0  0  0
  8  9  1  0  0  0  0
  4  5  1  0  0  0  0
 20 22  2  0  0  0  0
M  END
> <#>
1415

> <PLATE>
LAT018

> <ROW>
G

> <COL>
8

> <COORD>
G08

> <LATID>
LAT018G08

> <Supplier>
Chembridge

> <Suplier_CAT#>
9055609

> <Name>
Novel

> <Concentration_(mM)>
2.5

> <IC50_(µM)>
73

> <Yeast_Active?>
-

> <Pubchem_CID>
6470889

$$$$
