
  -ISIS-  08130814242D

 25 27  0  0  0  0  0  0  0  0999 V2000
    3.6292   -3.9417    0.0000 N   0  0  3  0  0  0  0  0  0  0  0  0
    4.0042   -4.5917    0.0000 N   0  0  0  0  0  0  0  0  0  0  0  0
    2.9000   -4.1000    0.0000 C   0  0  0  0  0  0  0  0  0  0  0  0
    2.8167   -4.8417    0.0000 C   0  0  0  0  0  0  0  0  0  0  0  0
    3.5042   -5.1500    0.0000 C   0  0  0  0  0  0  0  0  0  0  0  0
    2.4792   -1.0500    0.0000 C   0  0  0  0  0  0  0  0  0  0  0  0
    4.0792   -3.1875    0.0000 C   0  0  0  0  0  0  0  0  0  0  0  0
    2.3375   -0.3167    0.0000 N   0  0  0  0  0  0  0  0  0  0  0  0
    3.3667   -1.4500    0.0000 C   0  0  0  0  0  0  0  0  0  0  0  0
    3.3667   -2.2042    0.0000 C   0  0  0  0  0  0  0  0  0  0  0  0
    1.8917    1.8958    0.0000 N   0  0  0  0  0  0  0  0  0  0  0  0
    1.9250   -1.5625    0.0000 O   0  0  0  0  0  0  0  0  0  0  0  0
    2.1667   -5.2167    0.0000 Cl  0  0  0  0  0  0  0  0  0  0  0  0
    4.0167   -2.5792    0.0000 C   0  0  0  0  0  0  0  0  0  0  0  0
    1.4792    0.6583    0.0000 C   0  0  0  0  0  0  0  0  0  0  0  0
    2.0417    1.1583    0.0000 C   0  0  0  0  0  0  0  0  0  0  0  0
    2.3417   -3.6000    0.0000 C   0  0  0  0  0  0  0  0  0  0  0  0
    3.6625   -5.8792    0.0000 C   0  0  0  0  0  0  0  0  0  0  0  0
    4.0167   -1.0667    0.0000 C   0  0  0  0  0  0  0  0  0  0  0  0
    4.6667   -1.4500    0.0000 C   0  0  0  0  0  0  0  0  0  0  0  0
    2.4542    2.3833    0.0000 C   0  0  0  0  0  0  0  0  0  0  0  0
    4.6667   -2.2042    0.0000 C   0  0  0  0  0  0  0  0  0  0  0  0
    2.7500    0.9125    0.0000 C   0  0  0  0  0  0  0  0  0  0  0  0
    3.1667    2.1458    0.0000 C   0  0  0  0  0  0  0  0  0  0  0  0
    3.3167    1.4083    0.0000 C   0  0  0  0  0  0  0  0  0  0  0  0
  2  1  1  0  0  0  0
  3  1  1  0  0  0  0
  4  3  2  0  0  0  0
  5  2  2  0  0  0  0
  6  9  1  0  0  0  0
  7  1  1  0  0  0  0
  8  6  1  0  0  0  0
  9 10  1  0  0  0  0
 10 14  2  0  0  0  0
 11 16  1  0  0  0  0
 12  6  2  0  0  0  0
 13  4  1  0  0  0  0
 14  7  1  0  0  0  0
 15  8  1  0  0  0  0
 16 15  1  0  0  0  0
 17  3  1  0  0  0  0
 18  5  1  0  0  0  0
 19 20  1  0  0  0  0
 20 22  2  0  0  0  0
 21 11  2  0  0  0  0
 22 14  1  0  0  0  0
 23 16  2  0  0  0  0
 24 25  2  0  0  0  0
 25 23  1  0  0  0  0
  5  4  1  0  0  0  0
 19  9  2  0  0  0  0
 24 21  1  0  0  0  0
M  END
> <#>
1467

> <PLATE>
LAT019

> <ROW>
C

> <COL>
5

> <COORD>
C05

> <LATID>
LAT019C05

> <Supplier>
Chembridge

> <Suplier_CAT#>
7494431

> <Name>
Novel

> <Concentration_(mM)>
2.5

> <IC50_(µM)>
100

> <Yeast_Active?>
-

> <Pubchem_CID>
2191979

$$$$
