
  -ISIS-  08130814242D

 20 18  0  0  0  0  0  0  0  0999 V2000
    7.9639   -3.0629    0.0000 C   0  0  0  0  0  0  0  0  0  0  0  0
    7.1911   -3.5090    0.0000 C   0  0  0  0  0  0  0  0  0  0  0  0
    7.1911   -4.4013    0.0000 C   0  0  0  0  0  0  0  0  0  0  0  0
    7.9639   -4.8475    0.0000 O   0  0  0  0  0  0  0  0  0  0  0  0
    6.4183   -4.8475    0.0000 C   0  0  0  0  0  0  0  0  0  0  0  0
    5.6456   -4.4013    0.0000 C   0  0  0  0  0  0  0  0  0  0  0  0
    5.6456   -3.5090    0.0000 C   0  0  0  0  0  0  0  0  0  0  0  0
    6.4183   -3.0629    0.0000 C   0  0  0  0  0  0  0  0  0  0  0  0
    7.9639   -2.1705    0.0000 O   0  0  0  0  0  0  0  0  0  0  0  0
    8.7367   -3.5090    0.0000 O   0  0  0  0  0  0  0  0  0  0  0  0
    4.8728   -3.0629    0.0000 S   0  0  3  0  0  0  0  0  0  0  0  0
    4.4266   -3.8356    0.0000 O   0  0  0  0  0  0  0  0  0  0  0  0
    5.3190   -2.2901    0.0000 O   0  0  0  0  0  0  0  0  0  0  0  0
    4.1000   -2.6167    0.0000 O   0  0  0  0  0  0  0  0  0  0  0  0
    7.9639   -5.7398    0.0000 H   0  0  0  0  0  0  0  0  0  0  0  0
    8.7367   -6.1860    0.0000 O   0  0  0  0  0  0  0  0  0  0  0  0
    9.5094   -5.7398    0.0000 H   0  0  0  0  0  0  0  0  0  0  0  0
    8.7367   -1.7244    0.0000 H   0  0  0  0  0  0  0  0  0  0  0  0
    8.7367   -0.8321    0.0000 O   0  0  0  0  0  0  0  0  0  0  0  0
    7.9639   -0.3859    0.0000 H   0  0  0  0  0  0  0  0  0  0  0  0
  3  5  2  0  0  0  0
  5  6  1  0  0  0  0
  6  7  2  0  0  0  0
  7  8  1  0  0  0  0
  2  8  2  0  0  0  0
  1  9  2  0  0  0  0
  1 10  1  0  0  0  0
 11 12  2  0  0  0  0
 11 13  2  0  0  0  0
 11 14  1  0  0  0  0
  7 11  1  0  0  0  0
 15 16  1  0  0  0  0
 16 17  1  0  0  0  0
  1  2  1  0  0  0  0
  2  3  1  0  0  0  0
  3  4  1  0  0  0  0
 18 19  1  0  0  0  0
 19 20  1  0  0  0  0
M  END
> <#>
505

> <PLATE>
LAT007

> <ROW>
A

> <COL>
5

> <COORD>
A05

> <LATID>
LAT007A05

> <Supplier>
Sigma

> <Suplier_CAT#>
S-2130

> <Name>
5-Sulfosalicylic Acid Dihydrate

> <Concentration_(mM)>
2.5

> <IC50_(µM)>
inactive

> <Yeast_Active?>
-

> <Pubchem_CID>
2723734

$$$$
