
  -ISIS-  08130814242D

 20 22  0  0  0  0  0  0  0  0999 V2000
    0.5542   -0.6542    0.0000 C   0  0  3  0  0  0  0  0  0  0  0  0
    1.3667   -0.1792    0.0000 C   0  0  3  0  0  0  0  0  0  0  0  0
    0.5542    0.2833    0.0000 C   0  0  0  0  0  0  0  0  0  0  0  0
    0.5542   -1.5875    0.0000 C   0  0  0  0  0  0  0  0  0  0  0  0
   -1.0500   -1.6000    0.0000 N   0  0  0  0  0  0  0  0  0  0  0  0
    2.3042   -0.1792    0.0000 C   0  0  0  0  0  0  0  0  0  0  0  0
   -0.2458   -2.0667    0.0000 N   0  0  0  0  0  0  0  0  0  0  0  0
    1.3667   -2.0500    0.0000 O   0  0  0  0  0  0  0  0  0  0  0  0
   -4.3333   -1.6042    0.0000 N   0  0  0  0  0  0  0  0  0  0  0  0
   -1.8625   -2.0792    0.0000 C   0  0  0  0  0  0  0  0  0  0  0  0
   -2.7000   -1.6042    0.0000 C   0  0  0  0  0  0  0  0  0  0  0  0
   -3.5458   -2.0792    0.0000 C   0  0  0  0  0  0  0  0  0  0  0  0
   -4.3333   -0.6792    0.0000 C   0  0  0  0  0  0  0  0  0  0  0  0
    2.7667    0.6333    0.0000 C   0  0  0  0  0  0  0  0  0  0  0  0
    2.7875   -0.9792    0.0000 C   0  0  0  0  0  0  0  0  0  0  0  0
   -2.6708   -0.6875    0.0000 C   0  0  0  0  0  0  0  0  0  0  0  0
   -3.5000   -0.1875    0.0000 C   0  0  0  0  0  0  0  0  0  0  0  0
    3.7042    0.6333    0.0000 C   0  0  0  0  0  0  0  0  0  0  0  0
    3.7292   -0.9792    0.0000 C   0  0  0  0  0  0  0  0  0  0  0  0
    4.1875   -0.1792    0.0000 C   0  0  0  0  0  0  0  0  0  0  0  0
  2  1  1  0  0  0  0
  3  1  1  0  0  0  0
  4  1  1  0  0  0  0
  5  7  1  0  0  0  0
  6  2  1  0  0  0  0
  7  4  1  0  0  0  0
  8  4  2  0  0  0  0
  9 12  1  0  0  0  0
 10  5  2  0  0  0  0
 11 10  1  0  0  0  0
 12 11  2  0  0  0  0
 13 17  1  0  0  0  0
 14  6  1  0  0  0  0
 15  6  2  0  0  0  0
 16 11  1  0  0  0  0
 17 16  2  0  0  0  0
 18 14  2  0  0  0  0
 19 15  1  0  0  0  0
 20 19  2  0  0  0  0
  3  2  1  0  0  0  0
 20 18  1  0  0  0  0
  9 13  2  0  0  0  0
M  END
> <#>
1634

> <PLATE>
LAT021

> <ROW>
B

> <COL>
6

> <COORD>
B06

> <LATID>
LAT021B06

> <Supplier>
Chembridge

> <Suplier_CAT#>
5114836

> <Name>
Novel

> <Concentration_(mM)>
2.5

> <IC50_(µM)>
>100

> <Yeast_Active?>
-

> <Pubchem_CID>
2828237

$$$$
