
  -ISIS-  08130814242D

 16 18  0  0  0  0  0  0  0  0999 V2000
    3.4875   -2.0542    0.0000 N   0  0  0  0  0  0  0  0  0  0  0  0
    4.0875   -1.6292    0.0000 C   0  0  0  0  0  0  0  0  0  0  0  0
    2.8792   -1.6292    0.0000 C   0  0  0  0  0  0  0  0  0  0  0  0
    3.1167   -0.9042    0.0000 N   0  0  0  0  0  0  0  0  0  0  0  0
    3.8542   -0.9042    0.0000 O   0  0  0  0  0  0  0  0  0  0  0  0
    4.8042   -1.8542    0.0000 C   0  0  0  0  0  0  0  0  0  0  0  0
    5.0292   -2.5792    0.0000 S   0  0  0  0  0  0  0  0  0  0  0  0
    2.1667   -1.8542    0.0000 C   0  0  0  0  0  0  0  0  0  0  0  0
    5.4042   -1.4292    0.0000 C   0  0  0  0  0  0  0  0  0  0  0  0
    5.7792   -2.5792    0.0000 C   0  0  0  0  0  0  0  0  0  0  0  0
    6.0167   -1.8667    0.0000 C   0  0  0  0  0  0  0  0  0  0  0  0
    1.6042   -1.3542    0.0000 C   0  0  0  0  0  0  0  0  0  0  0  0
    2.0167   -2.6000    0.0000 C   0  0  0  0  0  0  0  0  0  0  0  0
    1.3042   -2.8292    0.0000 C   0  0  0  0  0  0  0  0  0  0  0  0
    0.9000   -1.6000    0.0000 C   0  0  0  0  0  0  0  0  0  0  0  0
    0.7500   -2.3292    0.0000 C   0  0  0  0  0  0  0  0  0  0  0  0
  2  1  2  0  0  0  0
  3  1  1  0  0  0  0
  4  3  2  0  0  0  0
  5  2  1  0  0  0  0
  6  2  1  0  0  0  0
  7  6  1  0  0  0  0
  8  3  1  0  0  0  0
  9  6  2  0  0  0  0
 10  7  1  0  0  0  0
 11  9  1  0  0  0  0
 12  8  1  0  0  0  0
 13  8  2  0  0  0  0
 14 13  1  0  0  0  0
 15 12  2  0  0  0  0
 16 14  2  0  0  0  0
  4  5  1  0  0  0  0
 10 11  2  0  0  0  0
 15 16  1  0  0  0  0
M  END
> <#>
2012

> <PLATE>
LAT026

> <ROW>
D

> <COL>
3

> <COORD>
D03

> <LATID>
LAT026D03

> <Supplier>
Chembridge

> <Suplier_CAT#>
5652963

> <Sec_Name>
202_F02

> <Concentration_(mM)>
2.5

> <IC50_(µM)>
>100

> <Yeast_Active?>
-

> <Pubchem_CID>
695679

$$$$
