
  -ISIS-  08130814242D

 30 33  0  0  0  0  0  0  0  0999 V2000
    0.3000    1.3333    0.0000 N   0  0  3  0  0  0  0  0  0  0  0  0
    0.3000    0.0125    0.0000 N   0  0  3  0  0  0  0  0  0  0  0  0
    0.3000    0.8958    0.0000 C   0  0  3  0  0  0  0  0  0  0  0  0
   -0.0833    0.2333    0.0000 C   0  0  0  0  0  0  0  0  0  0  0  0
   -0.0833    0.6708    0.0000 C   0  0  0  0  0  0  0  0  0  0  0  0
   -0.0833    1.5500    0.0000 C   0  0  0  0  0  0  0  0  0  0  0  0
    0.6792    0.6708    0.0000 C   0  0  0  0  0  0  0  0  0  0  0  0
    0.6792    0.2125    0.0000 C   0  0  3  0  0  0  0  0  0  0  0  0
    0.6792    1.5333    0.0000 C   0  0  0  0  0  0  0  0  0  0  0  0
    0.3000   -0.4292    0.0000 C   0  0  0  0  0  0  0  0  0  0  0  0
   -0.4833    1.3333    0.0000 O   0  0  0  0  0  0  0  0  0  0  0  0
   -0.0833    1.9958    0.0000 C   0  0  0  0  0  0  0  0  0  0  0  0
    1.0542    1.3125    0.0000 C   0  0  0  0  0  0  0  0  0  0  0  0
    0.6792   -0.6667    0.0000 O   0  0  0  0  0  0  0  0  0  0  0  0
    1.1042    0.8625    0.0000 F   0  0  0  0  0  0  0  0  0  0  0  0
   -0.4833    0.0125    0.0000 C   0  0  0  0  0  0  0  0  0  0  0  0
   -0.4833    0.8958    0.0000 C   0  0  0  0  0  0  0  0  0  0  0  0
    1.0542   -0.0500    0.0000 C   0  0  0  0  0  0  0  0  0  0  0  0
    0.6792    1.9708    0.0000 C   0  0  0  0  0  0  0  0  0  0  0  0
   -0.0833   -0.6500    0.0000 C   0  0  0  0  0  0  0  0  0  0  0  0
   -0.4833    2.1958    0.0000 C   0  0  0  0  0  0  0  0  0  0  0  0
    0.3000    2.2125    0.0000 C   0  0  0  0  0  0  0  0  0  0  0  0
    1.4375    1.5333    0.0000 C   0  0  0  0  0  0  0  0  0  0  0  0
   -0.8625    0.2125    0.0000 C   0  0  0  0  0  0  0  0  0  0  0  0
   -0.8625    0.6708    0.0000 C   0  0  0  0  0  0  0  0  0  0  0  0
    1.0542    2.1958    0.0000 C   0  0  0  0  0  0  0  0  0  0  0  0
    0.3000    2.6333    0.0000 C   0  0  0  0  0  0  0  0  0  0  0  0
   -0.4833    2.6333    0.0000 C   0  0  0  0  0  0  0  0  0  0  0  0
    1.4375    1.9708    0.0000 C   0  0  0  0  0  0  0  0  0  0  0  0
   -0.0833    2.8500    0.0000 C   0  0  0  0  0  0  0  0  0  0  0  0
  2  8  1  0  0  0  0
  3  1  1  0  0  0  0
  4  5  2  0  0  0  0
  5  3  1  0  0  0  0
  6  1  1  0  0  0  0
  7  3  1  0  0  0  0
  8  7  1  0  0  0  0
  9  1  1  0  0  0  0
 10  2  1  0  0  0  0
 11  6  2  0  0  0  0
 12  6  1  0  0  0  0
 13  9  2  0  0  0  0
 14 10  2  0  0  0  0
 15 13  1  0  0  0  0
 16  4  1  0  0  0  0
 17  5  1  0  0  0  0
 18  8  1  0  0  0  0
 19  9  1  0  0  0  0
 20 10  1  0  0  0  0
 21 12  2  0  0  0  0
 22 12  1  0  0  0  0
 23 13  1  0  0  0  0
 24 25  1  0  0  0  0
 25 17  2  0  0  0  0
 26 19  2  0  0  0  0
 27 22  2  0  0  0  0
 28 21  1  0  0  0  0
 29 26  1  0  0  0  0
 30 27  1  0  0  0  0
  4  2  1  0  0  0  0
 29 23  2  0  0  0  0
 30 28  2  0  0  0  0
 24 16  2  0  0  0  0
M  END
> <#>
1935

> <PLATE>
LAT025

> <ROW>
G

> <COL>
3

> <COORD>
G03

> <LATID>
LAT025G03

> <Supplier>
Chembridge

> <Suplier_CAT#>
5657938

> <Name>
Novel

> <Sec_Name>
204_A07

> <Concentration_(mM)>
2.5

> <IC50_(µM)>
40

> <Yeast_Active?>
-

> <Pubchem_CID>
1151160

$$$$
