
  -ISIS-  08130814242D

 35 38  0  0  0  0  0  0  0  0999 V2000
    5.3792   -4.2417    0.0000 S   0  0  3  0  0  0  0  0  0  0  0  0
    6.0917   -3.8250    0.0000 N   0  0  3  0  0  0  0  0  0  0  0  0
    6.8167   -2.5875    0.0000 C   0  0  0  0  0  0  0  0  0  0  0  0
    6.1000   -3.0000    0.0000 C   0  0  0  0  0  0  0  0  0  0  0  0
    7.5292   -3.0000    0.0000 C   0  0  0  0  0  0  0  0  0  0  0  0
    4.6667   -3.8417    0.0000 C   0  0  0  0  0  0  0  0  0  0  0  0
    4.9792   -4.9500    0.0000 O   0  0  0  0  0  0  0  0  0  0  0  0
    5.8042   -4.9542    0.0000 O   0  0  0  0  0  0  0  0  0  0  0  0
    8.2417   -2.5792    0.0000 N   0  0  0  0  0  0  0  0  0  0  0  0
    6.8042   -4.2417    0.0000 C   0  0  0  0  0  0  0  0  0  0  0  0
   10.3875   -2.9667    0.0000 N   0  0  0  0  0  0  0  0  0  0  0  0
    7.5292   -3.8250    0.0000 O   0  0  0  0  0  0  0  0  0  0  0  0
    3.9542   -4.2500    0.0000 C   0  0  0  0  0  0  0  0  0  0  0  0
    4.6667   -3.0125    0.0000 C   0  0  0  0  0  0  0  0  0  0  0  0
    8.9542   -2.9875    0.0000 C   0  0  0  0  0  0  0  0  0  0  0  0
    9.6667   -2.5667    0.0000 C   0  0  0  0  0  0  0  0  0  0  0  0
    3.2375   -3.0250    0.0000 C   0  0  0  0  0  0  0  0  0  0  0  0
    6.8167   -1.7625    0.0000 C   0  0  0  0  0  0  0  0  0  0  0  0
    6.8125   -5.0625    0.0000 C   0  0  0  0  0  0  0  0  0  0  0  0
    3.9417   -2.6000    0.0000 C   0  0  0  0  0  0  0  0  0  0  0  0
    3.2417   -3.8500    0.0000 C   0  0  0  0  0  0  0  0  0  0  0  0
    5.3917   -2.5875    0.0000 C   0  0  0  0  0  0  0  0  0  0  0  0
    2.5167   -2.6167    0.0000 O   0  0  0  0  0  0  0  0  0  0  0  0
   11.1042   -2.5542    0.0000 C   0  0  0  0  0  0  0  0  0  0  0  0
    9.6667   -1.7417    0.0000 C   0  0  0  0  0  0  0  0  0  0  0  0
    6.1000   -5.4667    0.0000 C   0  0  0  0  0  0  0  0  0  0  0  0
    7.5292   -5.4625    0.0000 C   0  0  0  0  0  0  0  0  0  0  0  0
    1.8042   -3.0375    0.0000 C   0  0  0  0  0  0  0  0  0  0  0  0
    6.1042   -1.3500    0.0000 C   0  0  0  0  0  0  0  0  0  0  0  0
    5.3917   -1.7625    0.0000 C   0  0  0  0  0  0  0  0  0  0  0  0
   11.0917   -1.7292    0.0000 C   0  0  0  0  0  0  0  0  0  0  0  0
    7.5292   -6.3000    0.0000 C   0  0  0  0  0  0  0  0  0  0  0  0
    6.1042   -6.2917    0.0000 C   0  0  0  0  0  0  0  0  0  0  0  0
   10.3792   -1.3167    0.0000 C   0  0  0  0  0  0  0  0  0  0  0  0
    6.8125   -6.7042    0.0000 C   0  0  0  0  0  0  0  0  0  0  0  0
  2  1  1  0  0  0  0
  3  4  2  0  0  0  0
  4  2  1  0  0  0  0
  5  3  1  0  0  0  0
  6  1  1  0  0  0  0
  7  1  2  0  0  0  0
  8  1  2  0  0  0  0
  9  5  1  0  0  0  0
 10  2  1  0  0  0  0
 11 16  1  0  0  0  0
 12  5  2  0  0  0  0
 13  6  2  0  0  0  0
 14  6  1  0  0  0  0
 15  9  1  0  0  0  0
 16 15  1  0  0  0  0
 17 20  1  0  0  0  0
 18  3  1  0  0  0  0
 19 10  1  0  0  0  0
 20 14  2  0  0  0  0
 21 13  1  0  0  0  0
 22  4  1  0  0  0  0
 23 17  1  0  0  0  0
 24 11  2  0  0  0  0
 25 16  2  0  0  0  0
 26 19  2  0  0  0  0
 27 19  1  0  0  0  0
 28 23  1  0  0  0  0
 29 30  1  0  0  0  0
 30 22  2  0  0  0  0
 31 34  2  0  0  0  0
 32 27  2  0  0  0  0
 33 26  1  0  0  0  0
 34 25  1  0  0  0  0
 35 32  1  0  0  0  0
 17 21  2  0  0  0  0
 18 29  2  0  0  0  0
 35 33  2  0  0  0  0
 31 24  1  0  0  0  0
M  END
> <#>
1465

> <PLATE>
LAT019

> <ROW>
A

> <COL>
5

> <COORD>
A05

> <LATID>
LAT019A05

> <Supplier>
Chembridge

> <Suplier_CAT#>
6470103

> <Name>
Novel

> <Concentration_(mM)>
2.5

> <IC50_(µM)>
62

> <Yeast_Active?>
-

> <Pubchem_CID>
1142890

$$$$
