
  -ISIS-  08130814242D

 18 20  0  0  0  0  0  0  0  0999 V2000
   -2.2625    0.7958    0.0000 N   0  0  3  0  0  0  0  0  0  0  0  0
   -1.5458    0.3500    0.0000 C   0  0  0  0  0  0  0  0  0  0  0  0
   -3.0458    0.4333    0.0000 N   0  0  0  0  0  0  0  0  0  0  0  0
   -2.3625    1.6333    0.0000 C   0  0  0  0  0  0  0  0  0  0  0  0
   -1.5458   -0.5042    0.0000 N   0  0  0  0  0  0  0  0  0  0  0  0
   -3.2000    1.8125    0.0000 C   0  0  0  0  0  0  0  0  0  0  0  0
   -3.6000    1.0708    0.0000 C   0  0  0  0  0  0  0  0  0  0  0  0
   -0.8000    0.7500    0.0000 C   0  0  0  0  0  0  0  0  0  0  0  0
   -0.8000   -0.9500    0.0000 C   0  0  0  0  0  0  0  0  0  0  0  0
   -0.0833    0.3333    0.0000 C   0  0  0  0  0  0  0  0  0  0  0  0
   -0.0833   -0.5292    0.0000 C   0  0  0  0  0  0  0  0  0  0  0  0
   -1.7458    2.2125    0.0000 C   0  0  0  0  0  0  0  0  0  0  0  0
    0.6792    0.7958    0.0000 C   0  0  0  0  0  0  0  0  0  0  0  0
   -0.8125   -1.7875    0.0000 C   0  0  0  0  0  0  0  0  0  0  0  0
   -4.4708    1.0125    0.0000 C   0  0  0  0  0  0  0  0  0  0  0  0
    0.6542   -0.9500    0.0000 C   0  0  0  0  0  0  0  0  0  0  0  0
   -0.0833   -2.2042    0.0000 C   0  0  0  0  0  0  0  0  0  0  0  0
    0.6542   -1.7792    0.0000 C   0  0  0  0  0  0  0  0  0  0  0  0
  2  1  1  0  0  0  0
  3  1  1  0  0  0  0
  4  1  1  0  0  0  0
  5  2  1  0  0  0  0
  6  4  2  0  0  0  0
  7  3  2  0  0  0  0
  8  2  2  0  0  0  0
  9  5  2  0  0  0  0
 10  8  1  0  0  0  0
 11 10  2  0  0  0  0
 12  4  1  0  0  0  0
 13 10  1  0  0  0  0
 14  9  1  0  0  0  0
 15  7  1  0  0  0  0
 16 11  1  0  0  0  0
 17 14  2  0  0  0  0
 18 16  2  0  0  0  0
  7  6  1  0  0  0  0
 11  9  1  0  0  0  0
 18 17  1  0  0  0  0
M  END
> <#>
776

> <PLATE>
LAT010

> <ROW>
H

> <COL>
8

> <COORD>
H08

> <LATID>
LAT010H08

> <Supplier>
Chembridge

> <Suplier_CAT#>
5618149

> <Name>
Novel

> <Sec_Name>
186_C06

> <Concentration_(mM)>
2.5

> <IC50_(µM)>
9.5

> <Yeast_Active?>
-

> <Pubchem_CID>
700871

$$$$
