
  -ISIS-  08130814242D

 31 34  0  0  0  0  0  0  0  0999 V2000
    4.1667   -0.5292    0.0000 N   0  0  3  0  0  0  0  0  0  0  0  0
    3.5167   -0.0292    0.0000 C   0  0  0  0  0  0  0  0  0  0  0  0
    3.7792    0.7458    0.0000 N   0  0  0  0  0  0  0  0  0  0  0  0
    4.8417   -0.0625    0.0000 C   0  0  0  0  0  0  0  0  0  0  0  0
    4.6042    0.7250    0.0000 N   0  0  0  0  0  0  0  0  0  0  0  0
    5.6417   -0.2750    0.0000 S   0  0  0  0  0  0  0  0  0  0  0  0
    4.1667   -1.3542    0.0000 C   0  0  0  0  0  0  0  0  0  0  0  0
    6.8750    0.4333    0.0000 C   0  0  0  0  0  0  0  0  0  0  0  0
    2.7167   -0.2500    0.0000 C   0  0  0  0  0  0  0  0  0  0  0  0
    7.6917    0.4333    0.0000 N   0  0  0  0  0  0  0  0  0  0  0  0
    6.4625    1.1458    0.0000 O   0  0  0  0  0  0  0  0  0  0  0  0
    6.4667   -0.2750    0.0000 C   0  0  0  0  0  0  0  0  0  0  0  0
    8.0917    1.1500    0.0000 C   0  0  0  0  0  0  0  0  0  0  0  0
    8.9167    1.1458    0.0000 C   0  0  0  0  0  0  0  0  0  0  0  0
   10.5500    1.1250    0.0000 C   0  0  0  0  0  0  0  0  0  0  0  0
    9.3167    0.4333    0.0000 C   0  0  0  0  0  0  0  0  0  0  0  0
    9.3292    1.8458    0.0000 C   0  0  0  0  0  0  0  0  0  0  0  0
   10.1375    0.4208    0.0000 C   0  0  0  0  0  0  0  0  0  0  0  0
   10.1417    1.8458    0.0000 C   0  0  0  0  0  0  0  0  0  0  0  0
   11.3667    1.1208    0.0000 O   0  0  0  0  0  0  0  0  0  0  0  0
    4.8750   -1.7625    0.0000 C   0  0  0  0  0  0  0  0  0  0  0  0
    3.4500   -1.7625    0.0000 C   0  0  0  0  0  0  0  0  0  0  0  0
    2.1292    0.3375    0.0000 C   0  0  0  0  0  0  0  0  0  0  0  0
    2.5042   -1.0500    0.0000 C   0  0  0  0  0  0  0  0  0  0  0  0
   11.7667    0.4083    0.0000 C   0  0  0  0  0  0  0  0  0  0  0  0
    1.7000   -1.2625    0.0000 C   0  0  0  0  0  0  0  0  0  0  0  0
    4.8667   -2.5917    0.0000 C   0  0  0  0  0  0  0  0  0  0  0  0
    3.4417   -2.5792    0.0000 C   0  0  0  0  0  0  0  0  0  0  0  0
    1.3292    0.1250    0.0000 C   0  0  0  0  0  0  0  0  0  0  0  0
    4.1542   -3.0000    0.0000 C   0  0  0  0  0  0  0  0  0  0  0  0
    1.1125   -0.6750    0.0000 C   0  0  0  0  0  0  0  0  0  0  0  0
  2  1  1  0  0  0  0
  3  2  2  0  0  0  0
  4  1  1  0  0  0  0
  5  4  2  0  0  0  0
  6  4  1  0  0  0  0
  7  1  1  0  0  0  0
  8 12  1  0  0  0  0
  9  2  1  0  0  0  0
 10  8  1  0  0  0  0
 11  8  2  0  0  0  0
 12  6  1  0  0  0  0
 13 10  1  0  0  0  0
 14 13  1  0  0  0  0
 15 19  1  0  0  0  0
 16 14  2  0  0  0  0
 17 14  1  0  0  0  0
 18 16  1  0  0  0  0
 19 17  2  0  0  0  0
 20 15  1  0  0  0  0
 21  7  1  0  0  0  0
 22  7  2  0  0  0  0
 23  9  2  0  0  0  0
 24  9  1  0  0  0  0
 25 20  1  0  0  0  0
 26 24  2  0  0  0  0
 27 21  2  0  0  0  0
 28 22  1  0  0  0  0
 29 23  1  0  0  0  0
 30 28  2  0  0  0  0
 31 26  1  0  0  0  0
  3  5  1  0  0  0  0
 27 30  1  0  0  0  0
 31 29  2  0  0  0  0
 18 15  2  0  0  0  0
M  END
> <#>
1727

> <PLATE>
LAT022

> <ROW>
G

> <COL>
7

> <COORD>
G07

> <LATID>
LAT022G07

> <Supplier>
Chembridge

> <Suplier_CAT#>
7558498

> <Name>
Novel

> <Concentration_(mM)>
2.5

> <IC50_(µM)>
inactive

> <Yeast_Active?>
-

> <Pubchem_CID>
1316459

$$$$
