
  -ISIS-  08130814242D

 15 15  0  0  0  0  0  0  0  0999 V2000
    6.6023   -0.0771    0.0000 C   0  0  0  0  0  0  0  0  0  0  0  0
    4.4372   -0.0771    0.0000 N   0  0  0  0  0  0  0  0  0  0  0  0
    5.5198   -0.7021    0.0000 C   0  0  1  0  0  0  0  0  0  0  0  0
    5.5198   -1.9521    0.0000 C   0  0  0  0  0  0  0  0  0  0  0  0
    6.6023    1.1729    0.0000 O   0  0  0  0  0  0  0  0  0  0  0  0
    7.6848   -0.7021    0.0000 O   0  0  0  0  0  0  0  0  0  0  0  0
    3.3547   -0.7021    0.0000 C   0  0  0  0  0  0  0  0  0  0  0  0
    2.2722   -0.0771    0.0000 C   0  0  0  0  0  0  0  0  0  0  0  0
    1.1896   -0.7021    0.0000 C   0  0  0  0  0  0  0  0  0  0  0  0
    0.1071   -0.0771    0.0000 C   0  0  0  0  0  0  0  0  0  0  0  0
    0.1071    1.1729    0.0000 C   0  0  0  0  0  0  0  0  0  0  0  0
    1.1896    1.7979    0.0000 C   0  0  0  0  0  0  0  0  0  0  0  0
    2.2722    1.1729    0.0000 C   0  0  0  0  0  0  0  0  0  0  0  0
    3.3547   -1.9521    0.0000 O   0  0  0  0  0  0  0  0  0  0  0  0
    7.6848   -1.9521    0.0000 C   0  0  0  0  0  0  0  0  0  0  0  0
  2  3  1  0  0  0  0
  1  3  1  0  0  0  0
  3  4  1  6  0  0  0
  1  5  2  0  0  0  0
  1  6  1  0  0  0  0
  7  8  1  0  0  0  0
  8  9  1  0  0  0  0
  9 10  2  0  0  0  0
 10 11  1  0  0  0  0
 11 12  2  0  0  0  0
 12 13  1  0  0  0  0
  8 13  2  0  0  0  0
  7 14  2  0  0  0  0
  2  7  1  0  0  0  0
  6 15  1  0  0  0  0
M  END
> <#>
384

> <PLATE>
LAT005

> <ROW>
H

> <COL>
9

> <COORD>
H09

> <LATID>
LAT005H09

> <Supplier>
Sigma

> <Suplier_CAT#>
B-3380

> <Name>
N-Alpha-Benzoyl-L-Alanine Methyl Ester

> <Concentration_(mM)>
2.5

> <IC50_(µM)>
inactive

> <Yeast_Active?>
-

> <Pubchem_CID>
23671

$$$$
