
  -ISIS-  08130814242D

 19 21  0  0  0  0  0  0  0  0999 V2000
   -4.0625    3.2333    0.0000 N   0  0  0  0  0  0  0  0  0  0  0  0
   -3.3125    2.9958    0.0000 C   0  0  0  0  0  0  0  0  0  0  0  0
   -3.3125    2.2083    0.0000 C   0  0  0  0  0  0  0  0  0  0  0  0
   -4.0500    1.9625    0.0000 C   0  0  0  0  0  0  0  0  0  0  0  0
   -4.5333    2.6000    0.0000 C   0  0  0  0  0  0  0  0  0  0  0  0
   -1.2708    1.8125    0.0000 N   0  0  0  0  0  0  0  0  0  0  0  0
   -1.9500    2.2083    0.0000 C   0  0  0  0  0  0  0  0  0  0  0  0
   -2.6333    1.8125    0.0000 C   0  0  0  0  0  0  0  0  0  0  0  0
   -0.5958    2.2125    0.0000 C   0  0  3  0  0  0  0  0  0  0  0  0
   -4.3625    1.2458    0.0000 C   0  0  0  0  0  0  0  0  0  0  0  0
   -5.3000    2.5208    0.0000 C   0  0  0  0  0  0  0  0  0  0  0  0
   -0.5958    2.9958    0.0000 C   0  0  0  0  0  0  0  0  0  0  0  0
    0.0000    1.7125    0.0000 C   0  0  0  0  0  0  0  0  0  0  0  0
   -5.1333    1.1500    0.0000 C   0  0  0  0  0  0  0  0  0  0  0  0
   -5.6000    1.7833    0.0000 C   0  0  0  0  0  0  0  0  0  0  0  0
    0.0500    3.4625    0.0000 C   0  0  0  0  0  0  0  0  0  0  0  0
    0.7542    1.8708    0.0000 C   0  0  0  0  0  0  0  0  0  0  0  0
    0.7792    3.2958    0.0000 C   0  0  0  0  0  0  0  0  0  0  0  0
    1.1500    2.5708    0.0000 C   0  0  0  0  0  0  0  0  0  0  0  0
  2  1  1  0  0  0  0
  3  2  2  0  0  0  0
  4  5  2  0  0  0  0
  5  1  1  0  0  0  0
  6  7  1  0  0  0  0
  7  8  1  0  0  0  0
  8  3  1  0  0  0  0
  9  6  1  0  0  0  0
 10  4  1  0  0  0  0
 11  5  1  0  0  0  0
 12  9  1  0  0  0  0
 13  9  1  0  0  0  0
 14 15  1  0  0  0  0
 15 11  2  0  0  0  0
 16 12  1  0  0  0  0
 17 13  1  0  0  0  0
 18 16  1  0  0  0  0
 19 17  1  0  0  0  0
  4  3  1  0  0  0  0
 14 10  2  0  0  0  0
 19 18  1  0  0  0  0
M  END
> <#>
1756

> <PLATE>
LAT022

> <ROW>
D

> <COL>
11

> <COORD>
D11

> <LATID>
LAT022D11

> <Supplier>
Chembridge

> <Suplier_CAT#>
5458321

> <Name>
Novel

> <Sec_Name>
127_C08

> <Concentration_(mM)>
2.5

> <IC50_(µM)>
20

> <Yeast_Active?>
-

> <Pubchem_CID>
NULL

$$$$
