
  -ISIS-  08130814242D

 26 27  0  0  0  0  0  0  0  0999 V2000
    1.7216   -1.2006    0.0000 C   0  0  0  0  0  0  0  0  0  0  0  0
    0.9698   -0.7212    0.0000 C   0  0  0  0  0  0  0  0  0  0  0  0
    1.0092    0.1703    0.0000 C   0  0  0  0  0  0  0  0  0  0  0  0
    0.2569    0.6501    0.0000 C   0  0  0  0  0  0  0  0  0  0  0  0
   -0.5348    0.2385    0.0000 C   0  0  0  0  0  0  0  0  0  0  0  0
   -0.5742   -0.6529    0.0000 C   0  0  0  0  0  0  0  0  0  0  0  0
    0.1781   -1.1328    0.0000 C   0  0  0  0  0  0  0  0  0  0  0  0
   -1.2866    0.7180    0.0000 S   0  0  3  0  0  0  0  0  0  0  0  0
   -1.7661   -0.0338    0.0000 O   0  0  0  0  0  0  0  0  0  0  0  0
   -0.8071    1.4698    0.0000 O   0  0  0  0  0  0  0  0  0  0  0  0
   -2.0384    1.1975    0.0000 N   0  0  3  0  0  0  0  0  0  0  0  0
   -2.8130    0.7559    0.0000 C   0  0  3  0  0  0  0  0  0  0  0  0
   -2.8179   -0.1358    0.0000 C   0  0  0  0  0  0  0  0  0  0  0  0
   -3.5925   -0.5773    0.0000 C   0  0  0  0  0  0  0  0  0  0  0  0
   -3.5982   -1.4924    0.0000 C   0  0  0  0  0  0  0  0  0  0  0  0
   -4.3920   -1.9001    0.0000 C   0  0  0  0  0  0  0  0  0  0  0  0
   -5.1495   -1.4500    0.0000 C   0  0  0  0  0  0  0  0  0  0  0  0
   -5.1378   -0.5464    0.0000 C   0  0  0  0  0  0  0  0  0  0  0  0
   -4.3440   -0.1387    0.0000 C   0  0  0  0  0  0  0  0  0  0  0  0
   -3.5827    1.2060    0.0000 C   0  0  0  0  0  0  0  0  0  0  0  0
   -3.5779    2.0976    0.0000 O   0  0  0  0  0  0  0  0  0  0  0  0
   -4.3574    0.7644    0.0000 O   0  0  0  0  0  0  0  0  0  0  0  0
   -1.9990    2.0883    0.0000 C   0  0  0  0  0  0  0  0  0  0  0  0
   -2.7687    2.5383    0.0000 O   0  0  0  0  0  0  0  0  0  0  0  0
   -1.2244    2.5299    0.0000 C   0  0  0  0  0  0  0  0  0  0  0  0
   -0.4546    2.0798    0.0000 Cl  0  0  0  0  0  0  0  0  0  0  0  0
  1  2  1  0  0  0  0
  2  3  2  0  0  0  0
  3  4  1  0  0  0  0
  4  5  2  0  0  0  0
  5  6  1  0  0  0  0
  6  7  2  0  0  0  0
  2  7  1  0  0  0  0
  5  8  1  0  0  0  0
  8  9  2  0  0  0  0
  8 10  2  0  0  0  0
  8 11  1  0  0  0  0
 11 12  1  0  0  0  0
 12 13  1  0  0  0  0
 13 14  1  0  0  0  0
 14 15  2  0  0  0  0
 15 16  1  0  0  0  0
 16 17  2  0  0  0  0
 17 18  1  0  0  0  0
 18 19  2  0  0  0  0
 14 19  1  0  0  0  0
 12 20  1  0  0  0  0
 20 21  2  0  0  0  0
 20 22  1  0  0  0  0
 11 23  1  0  0  0  0
 23 24  2  0  0  0  0
 23 25  1  0  0  0  0
 25 26  1  0  0  0  0
M  END
> <#>
459

> <PLATE>
LAT006

> <ROW>
C

> <COL>
9

> <COORD>
C09

> <LATID>
LAT006C09

> <Supplier>
Sigma

> <Suplier_CAT#>
T4376

> <Name>
N-P-Tosyl-L-Phenylalanine Chloromethylketone

> <Concentration_(mM)>
2.5

> <IC50_(µM)>
47

> <Yeast_Active?>
+

> <Pubchem_CID>
59427

$$$$
