
  -ISIS-  08130814242D

 14 14  0  0  0  0  0  0  0  0999 V2000
    5.0084   -1.6375    0.0000 S   0  0  3  0  0  0  0  0  0  0  0  0
    4.9959   -2.7250    0.0000 N   0  0  0  0  0  0  0  0  0  0  0  0
    4.9959   -3.5375    0.0000 C   0  0  0  0  0  0  0  0  0  0  0  0
    4.1834   -1.6375    0.0000 C   0  0  0  0  0  0  0  0  0  0  0  0
    5.0334   -0.8875    0.0000 O   0  0  0  0  0  0  0  0  0  0  0  0
    5.8334   -1.6375    0.0000 O   0  0  0  0  0  0  0  0  0  0  0  0
    5.7792   -3.7875    0.0000 N   0  0  0  0  0  0  0  0  0  0  0  0
    3.7709   -2.3583    0.0000 C   0  0  0  0  0  0  0  0  0  0  0  0
    3.7709   -0.9250    0.0000 C   0  0  0  0  0  0  0  0  0  0  0  0
    4.1834   -3.7875    0.0000 N   0  0  0  0  0  0  0  0  0  0  0  0
    2.5334   -1.6375    0.0000 C   0  0  0  0  0  0  0  0  0  0  0  0
    1.7084   -1.6375    0.0000 N   0  0  0  0  0  0  0  0  0  0  0  0
    2.9459   -2.3583    0.0000 C   0  0  0  0  0  0  0  0  0  0  0  0
    2.9459   -0.9250    0.0000 C   0  0  0  0  0  0  0  0  0  0  0  0
  2  1  1  0  0  0  0
  3  2  1  0  0  0  0
  4  1  1  0  0  0  0
  5  1  2  0  0  0  0
  6  1  2  0  0  0  0
  7  3  2  0  0  0  0
  8  4  2  0  0  0  0
  9  4  1  0  0  0  0
 10  3  1  0  0  0  0
 11 14  1  0  0  0  0
 12 11  1  0  0  0  0
 13  8  1  0  0  0  0
 14  9  2  0  0  0  0
 13 11  2  0  0  0  0
M  END
> <#>
93

> <PLATE>
LAT002

> <ROW>
E

> <COL>
3

> <COORD>
E03

> <LATID>
LAT002E03

> <Supplier>
Microsource

> <Suplier_CAT#>
1501146

> <Name>
Sulfaguanidine

> <Concentration_(mM)>
2.5

> <IC50_(µM)>
5.5

> <Yeast_Active?>
-

> <Pubchem_CID>
5324

$$$$
