
  -ISIS-  08130814242D

 36 39  0  0  0  0  0  0  0  0999 V2000
    2.1167    0.7333    0.0000 C   0  0  0  0  0  0  0  0  0  0  0  0
   -2.0458    0.6958    0.0000 C   0  0  0  0  0  0  0  0  0  0  0  0
    2.6542    1.0500    0.0000 C   0  0  0  0  0  0  0  0  0  0  0  0
   -2.5833    1.0125    0.0000 C   0  0  0  0  0  0  0  0  0  0  0  0
    1.6000    1.0333    0.0000 C   0  0  0  0  0  0  0  0  0  0  0  0
   -1.5208    0.9958    0.0000 C   0  0  0  0  0  0  0  0  0  0  0  0
    2.1167    0.1333    0.0000 C   0  0  0  0  0  0  0  0  0  0  0  0
   -2.0458    0.0958    0.0000 C   0  0  0  0  0  0  0  0  0  0  0  0
   -1.0000    0.6958    0.0000 C   0  0  0  0  0  0  0  0  0  0  0  0
    1.0792    0.7333    0.0000 C   0  0  0  0  0  0  0  0  0  0  0  0
   -2.5833    1.6125    0.0000 O   0  0  0  0  0  0  0  0  0  0  0  0
    2.6542    1.6500    0.0000 O   0  0  0  0  0  0  0  0  0  0  0  0
   -3.1208    0.6958    0.0000 C   0  0  0  0  0  0  0  0  0  0  0  0
    3.1792    0.7500    0.0000 C   0  0  0  0  0  0  0  0  0  0  0  0
   -1.0000    0.0958    0.0000 C   0  0  0  0  0  0  0  0  0  0  0  0
    1.0792    0.1333    0.0000 C   0  0  0  0  0  0  0  0  0  0  0  0
    0.5542   -0.2042    0.0000 O   0  0  0  0  0  0  0  0  0  0  0  0
   -0.4833   -0.2042    0.0000 O   0  0  0  0  0  0  0  0  0  0  0  0
    0.0375   -1.1042    0.0000 C   0  0  3  0  0  0  0  0  0  0  0  0
   -1.5208   -0.2042    0.0000 C   0  0  0  0  0  0  0  0  0  0  0  0
    1.6000   -0.1875    0.0000 C   0  0  0  0  0  0  0  0  0  0  0  0
   -1.5208    1.5958    0.0000 O   0  0  0  0  0  0  0  0  0  0  0  0
    1.6000    1.6333    0.0000 O   0  0  0  0  0  0  0  0  0  0  0  0
    0.5542   -0.8042    0.0000 C   0  0  0  0  0  0  0  0  0  0  0  0
   -0.4833   -0.8042    0.0000 C   0  0  0  0  0  0  0  0  0  0  0  0
    0.0375   -1.7042    0.0000 O   0  0  0  0  0  0  0  0  0  0  0  0
   -3.1208    0.0958    0.0000 C   0  0  0  0  0  0  0  0  0  0  0  0
    3.1792    0.1500    0.0000 C   0  0  0  0  0  0  0  0  0  0  0  0
   -3.6458    0.9958    0.0000 C   0  0  0  0  0  0  0  0  0  0  0  0
    3.7000    1.0500    0.0000 C   0  0  0  0  0  0  0  0  0  0  0  0
    4.2167    0.7500    0.0000 C   0  0  0  0  0  0  0  0  0  0  0  0
   -3.6458   -0.2042    0.0000 C   0  0  0  0  0  0  0  0  0  0  0  0
   -4.1625    0.6958    0.0000 C   0  0  0  0  0  0  0  0  0  0  0  0
    3.7000   -0.1667    0.0000 C   0  0  0  0  0  0  0  0  0  0  0  0
   -4.1625    0.0958    0.0000 C   0  0  0  0  0  0  0  0  0  0  0  0
    4.2167    0.1500    0.0000 C   0  0  0  0  0  0  0  0  0  0  0  0
  2  8  1  0  0  0  0
  3  1  1  0  0  0  0
  4  2  1  0  0  0  0
  5  1  2  0  0  0  0
  6  9  1  0  0  0  0
  7  1  1  0  0  0  0
  8 20  2  0  0  0  0
  9 15  2  0  0  0  0
 10  5  1  0  0  0  0
 11  4  2  0  0  0  0
 12  3  2  0  0  0  0
 13  4  1  0  0  0  0
 14  3  1  0  0  0  0
 15 18  1  0  0  0  0
 16 21  1  0  0  0  0
 17 16  1  0  0  0  0
 18 25  1  0  0  0  0
 19 24  1  0  0  0  0
 20 15  1  0  0  0  0
 21  7  2  0  0  0  0
 22  6  1  0  0  0  0
 23  5  1  0  0  0  0
 24 17  1  0  0  0  0
 25 19  1  0  0  0  0
 26 19  1  0  0  0  0
 27 13  1  0  0  0  0
 28 14  1  0  0  0  0
 29 13  2  0  0  0  0
 30 14  2  0  0  0  0
 31 30  1  0  0  0  0
 32 27  2  0  0  0  0
 33 29  1  0  0  0  0
 34 28  2  0  0  0  0
 35 33  2  0  0  0  0
 36 31  2  0  0  0  0
 16 10  2  0  0  0  0
 34 36  1  0  0  0  0
  6  2  2  0  0  0  0
 32 35  1  0  0  0  0
M  END
> <#>
1143

> <PLATE>
LAT015

> <ROW>
G

> <COL>
4

> <COORD>
G04

> <LATID>
LAT015G04

> <Supplier>
Chembridge

> <Suplier_CAT#>
5468086

> <Name>
Novel

> <Concentration_(mM)>
2.5

> <IC50_(µM)>
inactive

> <Yeast_Active?>
-

> <Pubchem_CID>
1242235

$$$$
