
  -ISIS-  08130814242D

 18 19  0  0  0  0  0  0  0  0999 V2000
    3.3417   -1.5792    0.0000 N   0  0  0  0  0  0  0  0  0  0  0  0
    2.5542   -1.3375    0.0000 C   0  0  0  0  0  0  0  0  0  0  0  0
    3.8167   -0.9042    0.0000 C   0  0  0  0  0  0  0  0  0  0  0  0
    2.5417   -0.5167    0.0000 N   0  0  0  0  0  0  0  0  0  0  0  0
    3.3250   -0.2417    0.0000 N   0  0  0  0  0  0  0  0  0  0  0  0
   -0.2833   -1.6792    0.0000 C   0  0  0  0  0  0  0  0  0  0  0  0
   -0.9333   -2.1792    0.0000 C   0  0  0  0  0  0  0  0  0  0  0  0
    0.4792   -2.0042    0.0000 C   0  0  0  0  0  0  0  0  0  0  0  0
   -1.6958   -1.8625    0.0000 C   0  0  0  0  0  0  0  0  0  0  0  0
   -0.3750   -0.8667    0.0000 C   0  0  0  0  0  0  0  0  0  0  0  0
    1.9000   -1.8292    0.0000 S   0  0  0  0  0  0  0  0  0  0  0  0
    1.1375   -1.5125    0.0000 C   0  0  0  0  0  0  0  0  0  0  0  0
    0.5792   -2.8250    0.0000 O   0  0  0  0  0  0  0  0  0  0  0  0
    4.6417   -0.8917    0.0000 N   0  0  0  0  0  0  0  0  0  0  0  0
   -1.7958   -1.0417    0.0000 C   0  0  0  0  0  0  0  0  0  0  0  0
   -0.8333   -3.0000    0.0000 O   0  0  0  0  0  0  0  0  0  0  0  0
   -1.1333   -0.5417    0.0000 C   0  0  0  0  0  0  0  0  0  0  0  0
   -2.5583   -0.7167    0.0000 O   0  0  0  0  0  0  0  0  0  0  0  0
  2  1  1  0  0  0  0
  3  1  1  0  0  0  0
  4  2  2  0  0  0  0
  5  3  2  0  0  0  0
  6  8  1  0  0  0  0
  7  6  1  0  0  0  0
  8 12  1  0  0  0  0
  9  7  2  0  0  0  0
 10  6  2  0  0  0  0
 11  2  1  0  0  0  0
 12 11  1  0  0  0  0
 13  8  2  0  0  0  0
 14  3  1  0  0  0  0
 15 17  2  0  0  0  0
 16  7  1  0  0  0  0
 17 10  1  0  0  0  0
 18 15  1  0  0  0  0
  4  5  1  0  0  0  0
 15  9  1  0  0  0  0
M  END
> <#>
1356

> <PLATE>
LAT017

> <ROW>
D

> <COL>
11

> <COORD>
D11

> <LATID>
LAT017D11

> <Supplier>
Chembridge

> <Suplier_CAT#>
7615720

> <Name>
Novel

> <Concentration_(mM)>
2.5

> <IC50_(µM)>
inactive

> <Yeast_Active?>
-

> <Pubchem_CID>
NULL

$$$$
