
  -ISIS-  08130814242D

 26 27  0  0  0  0  0  0  0  0999 V2000
    3.2542   -2.8542    0.0000 S   0  0  3  0  0  0  0  0  0  0  0  0
    3.2667   -2.1042    0.0000 N   0  0  3  0  0  0  0  0  0  0  0  0
    3.9167   -1.7292    0.0000 C   0  0  0  0  0  0  0  0  0  0  0  0
    2.6042   -1.7292    0.0000 C   0  0  0  0  0  0  0  0  0  0  0  0
    4.5667   -2.1042    0.0000 C   0  0  0  0  0  0  0  0  0  0  0  0
    5.8667   -2.1042    0.0000 C   0  0  0  0  0  0  0  0  0  0  0  0
    5.2292   -1.7375    0.0000 N   0  0  0  0  0  0  0  0  0  0  0  0
    5.8667   -2.8542    0.0000 C   0  0  0  0  0  0  0  0  0  0  0  0
    4.0167   -2.8542    0.0000 O   0  0  0  0  0  0  0  0  0  0  0  0
    3.6667   -3.6000    0.0000 O   0  0  0  0  0  0  0  0  0  0  0  0
    6.5167   -1.7375    0.0000 C   0  0  0  0  0  0  0  0  0  0  0  0
    1.9542   -2.1000    0.0000 C   0  0  0  0  0  0  0  0  0  0  0  0
    2.6042   -0.9667    0.0000 C   0  0  0  0  0  0  0  0  0  0  0  0
    4.5667   -2.8542    0.0000 O   0  0  0  0  0  0  0  0  0  0  0  0
    7.1667   -2.1167    0.0000 C   0  0  0  0  0  0  0  0  0  0  0  0
    6.5167   -3.2375    0.0000 C   0  0  0  0  0  0  0  0  0  0  0  0
    2.6042   -3.2292    0.0000 C   0  0  0  0  0  0  0  0  0  0  0  0
    7.1667   -2.8667    0.0000 C   0  0  0  0  0  0  0  0  0  0  0  0
    6.5167   -3.9875    0.0000 Cl  0  0  0  0  0  0  0  0  0  0  0  0
    6.5292   -0.9875    0.0000 O   0  0  0  0  0  0  0  0  0  0  0  0
    1.3042   -0.9667    0.0000 C   0  0  0  0  0  0  0  0  0  0  0  0
    1.9542   -0.6000    0.0000 C   0  0  0  0  0  0  0  0  0  0  0  0
    1.3042   -1.7292    0.0000 C   0  0  0  0  0  0  0  0  0  0  0  0
    1.9542   -2.8500    0.0000 C   0  0  0  0  0  0  0  0  0  0  0  0
    3.2542   -0.6000    0.0000 C   0  0  0  0  0  0  0  0  0  0  0  0
    7.1792   -0.6167    0.0000 C   0  0  0  0  0  0  0  0  0  0  0  0
  2  1  1  0  0  0  0
  3  2  1  0  0  0  0
  4  2  1  0  0  0  0
  5  3  1  0  0  0  0
  6  7  1  0  0  0  0
  7  5  1  0  0  0  0
  8  6  1  0  0  0  0
  9  1  2  0  0  0  0
 10  1  2  0  0  0  0
 11  6  2  0  0  0  0
 12  4  1  0  0  0  0
 13  4  2  0  0  0  0
 14  5  2  0  0  0  0
 15 11  1  0  0  0  0
 16  8  2  0  0  0  0
 17  1  1  0  0  0  0
 18 15  2  0  0  0  0
 19 16  1  0  0  0  0
 20 11  1  0  0  0  0
 21 22  2  0  0  0  0
 22 13  1  0  0  0  0
 23 12  2  0  0  0  0
 24 12  1  0  0  0  0
 25 13  1  0  0  0  0
 26 20  1  0  0  0  0
 21 23  1  0  0  0  0
 18 16  1  0  0  0  0
M  END
> <#>
770

> <PLATE>
LAT010

> <ROW>
B

> <COL>
8

> <COORD>
B08

> <LATID>
LAT010B08

> <Supplier>
Chembridge

> <Suplier_CAT#>
5612495

> <Name>
Novel

> <Sec_Name>
186_G11

> <Concentration_(mM)>
2.5

> <IC50_(µM)>
29

> <Yeast_Active?>
-

> <Pubchem_CID>
1108140

$$$$
