
  -ISIS-  08130814242D

 23 25  0  0  0  0  0  0  0  0999 V2000
    0.5875    1.3625    0.0000 C   0  0  0  0  0  0  0  0  0  0  0  0
    1.7500    0.6708    0.0000 C   0  0  0  0  0  0  0  0  0  0  0  0
    2.9042    1.3333    0.0000 N   0  0  3  0  0  0  0  0  0  0  0  0
   -0.5833    0.7000    0.0000 C   0  0  0  0  0  0  0  0  0  0  0  0
   -1.7458    1.3958    0.0000 C   0  0  0  0  0  0  0  0  0  0  0  0
    1.7500   -0.6667    0.0000 C   0  0  0  0  0  0  0  0  0  0  0  0
   -0.5833   -0.6375    0.0000 O   0  0  0  0  0  0  0  0  0  0  0  0
   -1.7458    2.7333    0.0000 C   0  0  0  0  0  0  0  0  0  0  0  0
   -2.9000    0.7000    0.0000 C   0  0  0  0  0  0  0  0  0  0  0  0
   -4.0708    1.3625    0.0000 C   0  0  0  0  0  0  0  0  0  0  0  0
   -2.9000    3.4208    0.0000 C   0  0  0  0  0  0  0  0  0  0  0  0
   -4.0708    2.7333    0.0000 C   0  0  0  0  0  0  0  0  0  0  0  0
    2.9042    2.6708    0.0000 C   0  0  0  0  0  0  0  0  0  0  0  0
    4.0500    0.6458    0.0000 C   0  0  0  0  0  0  0  0  0  0  0  0
    0.5875   -1.3792    0.0000 C   0  0  0  0  0  0  0  0  0  0  0  0
    2.9042   -1.3042    0.0000 C   0  0  0  0  0  0  0  0  0  0  0  0
   -5.2708    3.3958    0.0000 C   0  0  0  0  0  0  0  0  0  0  0  0
    5.2375    1.2708    0.0000 C   0  0  0  0  0  0  0  0  0  0  0  0
    4.0792    3.3333    0.0000 C   0  0  0  0  0  0  0  0  0  0  0  0
    2.9500   -2.6667    0.0000 C   0  0  0  0  0  0  0  0  0  0  0  0
    0.6292   -2.7042    0.0000 C   0  0  0  0  0  0  0  0  0  0  0  0
    5.2375    2.6708    0.0000 C   0  0  0  0  0  0  0  0  0  0  0  0
    1.8000   -3.3542    0.0000 C   0  0  0  0  0  0  0  0  0  0  0  0
  2  1  2  0  0  0  0
  3  2  1  0  0  0  0
  4  1  1  0  0  0  0
  5  4  1  0  0  0  0
  6  2  1  0  0  0  0
  7  4  2  0  0  0  0
  8  5  2  0  0  0  0
  9  5  1  0  0  0  0
 10  9  2  0  0  0  0
 11  8  1  0  0  0  0
 12 10  1  0  0  0  0
 13  3  1  0  0  0  0
 14  3  1  0  0  0  0
 15  6  2  0  0  0  0
 16  6  1  0  0  0  0
 17 12  1  0  0  0  0
 18 14  1  0  0  0  0
 19 13  1  0  0  0  0
 20 16  2  0  0  0  0
 21 15  1  0  0  0  0
 22 18  1  0  0  0  0
 23 20  1  0  0  0  0
 11 12  2  0  0  0  0
 21 23  2  0  0  0  0
 22 19  1  0  0  0  0
M  END
> <#>
1702

> <PLATE>
LAT022

> <ROW>
F

> <COL>
4

> <COORD>
F04

> <LATID>
LAT022F04

> <Supplier>
Chembridge

> <Suplier_CAT#>
5213811

> <Name>
Novel

> <Concentration_(mM)>
2.5

> <IC50_(µM)>
>100

> <Yeast_Active?>
-

> <Pubchem_CID>
2833912

$$$$
