
  -ISIS-  08130814242D

 21 22  0  0  0  0  0  0  0  0999 V2000
    2.4000    1.7125    0.0000 C   0  0  3  0  0  0  0  0  0  0  0  0
    1.7500    2.1000    0.0000 C   0  0  0  0  0  0  0  0  0  0  0  0
   -1.9708    1.3958    0.0000 C   0  0  0  0  0  0  0  0  0  0  0  0
   -1.2708    1.7958    0.0000 N   0  0  0  0  0  0  0  0  0  0  0  0
   -2.6500    1.7708    0.0000 C   0  0  0  0  0  0  0  0  0  0  0  0
    1.0667    1.7125    0.0000 C   0  0  0  0  0  0  0  0  0  0  0  0
   -1.9708    0.6000    0.0000 C   0  0  0  0  0  0  0  0  0  0  0  0
    3.0542    1.3458    0.0000 F   0  0  0  0  0  0  0  0  0  0  0  0
    2.8000    2.3958    0.0000 F   0  0  0  0  0  0  0  0  0  0  0  0
    2.0042    1.0458    0.0000 F   0  0  0  0  0  0  0  0  0  0  0  0
   -3.3458    1.3958    0.0000 C   0  0  0  0  0  0  0  0  0  0  0  0
   -0.3000    1.7458    0.0000 C   0  0  0  0  0  0  0  0  0  0  0  0
    0.3667    2.1000    0.0000 C   0  0  0  0  0  0  0  0  0  0  0  0
   -2.6500    0.2000    0.0000 C   0  0  0  0  0  0  0  0  0  0  0  0
   -3.3458    0.6000    0.0000 C   0  0  0  0  0  0  0  0  0  0  0  0
   -2.6500    2.5500    0.0000 O   0  0  0  0  0  0  0  0  0  0  0  0
    1.7500    2.8833    0.0000 C   0  0  0  0  0  0  0  0  0  0  0  0
    1.0667    3.2708    0.0000 C   0  0  0  0  0  0  0  0  0  0  0  0
    0.3667    2.8625    0.0000 C   0  0  0  0  0  0  0  0  0  0  0  0
   -2.6500   -0.5667    0.0000 C   0  0  0  0  0  0  0  0  0  0  0  0
   -1.9958    2.9333    0.0000 C   0  0  0  0  0  0  0  0  0  0  0  0
  2  1  1  0  0  0  0
  3  4  1  0  0  0  0
  4 12  1  0  0  0  0
  5  3  2  0  0  0  0
  6  2  2  0  0  0  0
  7  3  1  0  0  0  0
  8  1  1  0  0  0  0
  9  1  1  0  0  0  0
 10  1  1  0  0  0  0
 11  5  1  0  0  0  0
 12 13  1  0  0  0  0
 13  6  1  0  0  0  0
 14  7  2  0  0  0  0
 15 14  1  0  0  0  0
 16  5  1  0  0  0  0
 17  2  1  0  0  0  0
 18 17  2  0  0  0  0
 19 18  1  0  0  0  0
 20 14  1  0  0  0  0
 21 16  1  0  0  0  0
 19 13  2  0  0  0  0
 15 11  2  0  0  0  0
M  END
> <#>
1050

> <PLATE>
LAT014

> <ROW>
B

> <COL>
3

> <COORD>
B03

> <LATID>
LAT014B03

> <Supplier>
Chembridge

> <Suplier_CAT#>
5552045

> <Name>
Novel

> <Concentration_(mM)>
2.5

> <IC50_(µM)>
100

> <Yeast_Active?>
-

> <Pubchem_CID>
791955

$$$$
