
  -ISIS-  08130814242D

 17 18  0  0  0  0  0  0  0  0999 V2000
    2.6042    0.1333    0.0000 N   0  0  0  0  0  0  0  0  0  0  0  0
    0.4042    0.3333    0.0000 C   0  0  0  0  0  0  0  0  0  0  0  0
    0.9500    0.0125    0.0000 C   0  0  0  0  0  0  0  0  0  0  0  0
    2.0042   -0.0292    0.0000 C   0  0  0  0  0  0  0  0  0  0  0  0
    0.4042    0.9500    0.0000 C   0  0  0  0  0  0  0  0  0  0  0  0
    2.9167   -0.4000    0.0000 C   0  0  0  0  0  0  0  0  0  0  0  0
    2.5500   -0.8875    0.0000 S   0  0  0  0  0  0  0  0  0  0  0  0
    1.4875    0.3125    0.0000 C   0  0  0  0  0  0  0  0  0  0  0  0
    1.9667   -0.6667    0.0000 C   0  0  0  0  0  0  0  0  0  0  0  0
   -0.1333    1.2708    0.0000 C   0  0  0  0  0  0  0  0  0  0  0  0
   -0.1333    0.0125    0.0000 C   0  0  0  0  0  0  0  0  0  0  0  0
    0.9292   -0.6292    0.0000 O   0  0  0  0  0  0  0  0  0  0  0  0
   -0.6708    0.9500    0.0000 C   0  0  0  0  0  0  0  0  0  0  0  0
    0.9500    1.2708    0.0000 O   0  0  0  0  0  0  0  0  0  0  0  0
   -0.6708    0.3333    0.0000 C   0  0  0  0  0  0  0  0  0  0  0  0
   -1.2125    1.2708    0.0000 O   0  0  0  0  0  0  0  0  0  0  0  0
    3.4292   -0.4042    0.0000 C   0  0  0  0  0  0  0  0  0  0  0  0
  2  3  1  0  0  0  0
  3  8  1  0  0  0  0
  4  1  1  0  0  0  0
  5  2  2  0  0  0  0
  6  1  2  0  0  0  0
  7  6  1  0  0  0  0
  8  4  1  0  0  0  0
  9  4  2  0  0  0  0
 10  5  1  0  0  0  0
 11  2  1  0  0  0  0
 12  3  2  0  0  0  0
 13 15  1  0  0  0  0
 14  5  1  0  0  0  0
 15 11  2  0  0  0  0
 16 13  1  0  0  0  0
 17  6  1  0  0  0  0
  7  9  1  0  0  0  0
 10 13  2  0  0  0  0
M  END
> <#>
1294

> <PLATE>
LAT017

> <ROW>
F

> <COL>
3

> <COORD>
F03

> <LATID>
LAT017F03

> <Supplier>
Chembridge

> <Suplier_CAT#>
6877794

> <Name>
Novel

> <Concentration_(mM)>
2.5

> <IC50_(µM)>
inactive

> <Yeast_Active?>
-

> <Pubchem_CID>
2054899

$$$$
