
  -ISIS-  08130814242D

 18 19  0  0  0  0  0  0  0  0999 V2000
   -1.9458    1.6208    0.0000 C   0  0  0  0  0  0  0  0  0  0  0  0
   -1.9458    2.1458    0.0000 N   0  0  0  0  0  0  0  0  0  0  0  0
   -2.4000    1.3625    0.0000 N   0  0  0  0  0  0  0  0  0  0  0  0
   -1.4625    0.8625    0.0000 N   0  0  0  0  0  0  0  0  0  0  0  0
   -1.4833    1.3625    0.0000 N   0  0  0  0  0  0  0  0  0  0  0  0
   -1.0000    0.6000    0.0000 C   0  0  0  0  0  0  0  0  0  0  0  0
   -0.9833    0.1000    0.0000 C   0  0  0  0  0  0  0  0  0  0  0  0
   -2.4000    2.4000    0.0000 C   0  0  0  0  0  0  0  0  0  0  0  0
   -2.8458    1.6208    0.0000 C   0  0  0  0  0  0  0  0  0  0  0  0
   -2.8458    2.1208    0.0000 C   0  0  0  0  0  0  0  0  0  0  0  0
   -1.4208   -0.6792    0.0000 N   0  0  0  0  0  0  0  0  0  0  0  0
   -1.4208   -0.1542    0.0000 C   0  0  0  0  0  0  0  0  0  0  0  0
   -0.5458   -0.1792    0.0000 C   0  0  0  0  0  0  0  0  0  0  0  0
   -0.9833   -0.9375    0.0000 C   0  0  0  0  0  0  0  0  0  0  0  0
   -0.5625    0.8833    0.0000 C   0  0  0  0  0  0  0  0  0  0  0  0
   -2.4000    2.9208    0.0000 C   0  0  0  0  0  0  0  0  0  0  0  0
   -3.2833    1.3458    0.0000 C   0  0  0  0  0  0  0  0  0  0  0  0
   -0.5458   -0.6792    0.0000 C   0  0  0  0  0  0  0  0  0  0  0  0
  2  1  1  0  0  0  0
  3  1  2  0  0  0  0
  4  5  1  0  0  0  0
  5  1  1  0  0  0  0
  6  4  2  0  0  0  0
  7  6  1  0  0  0  0
  8  2  2  0  0  0  0
  9  3  1  0  0  0  0
 10  9  2  0  0  0  0
 11 12  2  0  0  0  0
 12  7  1  0  0  0  0
 13  7  2  0  0  0  0
 14 18  2  0  0  0  0
 15  6  1  0  0  0  0
 16  8  1  0  0  0  0
 17  9  1  0  0  0  0
 18 13  1  0  0  0  0
  8 10  1  0  0  0  0
 11 14  1  0  0  0  0
M  END
> <#>
1655

> <PLATE>
LAT021

> <ROW>
G

> <COL>
8

> <COORD>
G08

> <LATID>
LAT021G08

> <Supplier>
Chembridge

> <Suplier_CAT#>
5304125

> <Name>
Novel

> <Concentration_(mM)>
2.5

> <IC50_(µM)>
inactive

> <Yeast_Active?>
-

> <Pubchem_CID>
2840012

$$$$
