
  -ISIS-  08130814242D

 21 22  0  0  0  0  0  0  0  0999 V2000
   -1.7125   -0.0292    0.0000 N   0  0  3  0  0  0  0  0  0  0  0  0
   -2.1125   -0.3167    0.0000 C   0  0  0  0  0  0  0  0  0  0  0  0
   -1.4625   -0.8000    0.0000 C   0  0  0  0  0  0  0  0  0  0  0  0
   -1.3125   -0.3167    0.0000 C   0  0  0  0  0  0  0  0  0  0  0  0
   -1.9708   -0.8000    0.0000 S   0  0  0  0  0  0  0  0  0  0  0  0
    0.1542   -0.2000    0.0000 N   0  3  0  0  0  0  0  0  0  0  0  0
   -1.1708   -1.2000    0.0000 C   0  0  0  0  0  0  0  0  0  0  0  0
   -0.6833   -1.1500    0.0000 C   0  0  0  0  0  0  0  0  0  0  0  0
   -0.0125   -0.6500    0.0000 C   0  0  0  0  0  0  0  0  0  0  0  0
    0.2792   -1.0167    0.0000 C   0  0  0  0  0  0  0  0  0  0  0  0
    0.1000   -1.4667    0.0000 C   0  0  0  0  0  0  0  0  0  0  0  0
   -0.3833   -1.5292    0.0000 C   0  0  0  0  0  0  0  0  0  0  0  0
   -0.4958   -0.7000    0.0000 C   0  0  0  0  0  0  0  0  0  0  0  0
   -2.5625   -0.1667    0.0000 S   0  0  0  0  0  0  0  0  0  0  0  0
    0.6500   -0.1500    0.0000 O   0  5  0  0  0  0  0  0  0  0  0  0
   -0.1333    0.1625    0.0000 O   0  0  0  0  0  0  0  0  0  0  0  0
   -0.8458   -0.1500    0.0000 O   0  0  0  0  0  0  0  0  0  0  0  0
   -1.7125    0.4458    0.0000 C   0  0  0  0  0  0  0  0  0  0  0  0
    0.3792   -1.8542    0.0000 Br  0  0  0  0  0  0  0  0  0  0  0  0
   -0.5625   -1.9792    0.0000 O   0  0  0  0  0  0  0  0  0  0  0  0
   -2.1208    0.6833    0.0000 C   0  0  0  0  0  0  0  0  0  0  0  0
  2  1  1  0  0  0  0
  3  4  1  0  0  0  0
  4  1  1  0  0  0  0
  5  2  1  0  0  0  0
  6  9  1  0  0  0  0
  7  3  2  0  0  0  0
  8  7  1  0  0  0  0
  9 13  2  0  0  0  0
 10  9  1  0  0  0  0
 11 12  1  0  0  0  0
 12  8  2  0  0  0  0
 13  8  1  0  0  0  0
 14  2  2  0  0  0  0
 15  6  1  0  0  0  0
 16  6  2  0  0  0  0
 17  4  2  0  0  0  0
 18  1  1  0  0  0  0
 19 11  1  0  0  0  0
 20 12  1  0  0  0  0
 21 18  1  0  0  0  0
  5  3  1  0  0  0  0
 10 11  2  0  0  0  0
M  CHG  2   6   1  15  -1
M  END
> <#>
1827

> <PLATE>
LAT023

> <ROW>
C

> <COL>
10

> <COORD>
C10

> <LATID>
LAT023C10

> <Supplier>
Chembridge

> <Suplier_CAT#>
5669233

> <Name>
Novel

> <Sec_Name>
210_B11

> <Concentration_(mM)>
2.5

> <IC50_(µM)>
13

> <Yeast_Active?>
-

> <Pubchem_CID>
2256465

$$$$
