
  -ISIS-  08130814242D

 23 25  0  0  0  0  0  0  0  0999 V2000
    4.1375    0.0625    0.0000 C   0  0  0  0  0  0  0  0  0  0  0  0
    4.6792    0.3833    0.0000 N   0  0  3  0  0  0  0  0  0  0  0  0
    3.6000    0.3625    0.0000 C   0  0  0  0  0  0  0  0  0  0  0  0
    4.1167   -0.5542    0.0000 O   0  0  0  0  0  0  0  0  0  0  0  0
    2.5375    1.0000    0.0000 C   0  0  0  0  0  0  0  0  0  0  0  0
    2.0167    1.3000    0.0000 C   0  0  3  0  0  0  0  0  0  0  0  0
    3.0792    0.0625    0.0000 C   0  0  0  0  0  0  0  0  0  0  0  0
    3.6000    0.9833    0.0000 C   0  0  0  0  0  0  0  0  0  0  0  0
    2.5375    0.3625    0.0000 C   0  0  0  0  0  0  0  0  0  0  0  0
    3.0792    1.3000    0.0000 C   0  0  0  0  0  0  0  0  0  0  0  0
    5.7792    0.9833    0.0000 O   0  0  0  0  0  0  0  0  0  0  0  0
    2.0375    1.9208    0.0000 C   0  0  0  0  0  0  0  0  0  0  0  0
    1.4792    1.0000    0.0000 C   0  0  0  0  0  0  0  0  0  0  0  0
    0.9542    1.3208    0.0000 C   0  0  0  0  0  0  0  0  0  0  0  0
    1.5167    2.2458    0.0000 C   0  0  0  0  0  0  0  0  0  0  0  0
    5.2167    0.0625    0.0000 C   0  0  0  0  0  0  0  0  0  0  0  0
    4.6792    1.0000    0.0000 C   0  0  0  0  0  0  0  0  0  0  0  0
    0.9542    1.9458    0.0000 C   0  0  3  0  0  0  0  0  0  0  0  0
    5.7542    0.3625    0.0000 C   0  0  0  0  0  0  0  0  0  0  0  0
    5.2167    1.3000    0.0000 C   0  0  0  0  0  0  0  0  0  0  0  0
    0.4000    2.2708    0.0000 C   0  0  0  0  0  0  0  0  0  0  0  0
   -0.1458    1.9458    0.0000 C   0  0  0  0  0  0  0  0  0  0  0  0
   -0.6833    2.2208    0.0000 C   0  0  0  0  0  0  0  0  0  0  0  0
  2  1  1  0  0  0  0
  3  1  1  0  0  0  0
  4  1  2  0  0  0  0
  5 10  1  0  0  0  0
  6  5  1  0  0  0  0
  7  3  2  0  0  0  0
  8  3  1  0  0  0  0
  9  7  1  0  0  0  0
 10  8  2  0  0  0  0
 11 20  1  0  0  0  0
 12  6  1  0  0  0  0
 13  6  1  0  0  0  0
 14 13  1  0  0  0  0
 15 12  1  0  0  0  0
 16  2  1  0  0  0  0
 17  2  1  0  0  0  0
 18 14  1  0  0  0  0
 19 16  1  0  0  0  0
 20 17  1  0  0  0  0
 21 18  1  0  0  0  0
 22 21  1  0  0  0  0
 23 22  1  0  0  0  0
  9  5  2  0  0  0  0
 11 19  1  0  0  0  0
 15 18  1  0  0  0  0
M  END
> <#>
717

> <PLATE>
LAT009

> <ROW>
E

> <COL>
11

> <COORD>
E11

> <LATID>
LAT009E11

> <Supplier>
Chembridge

> <Suplier_CAT#>
5562176

> <Name>
Novel

> <Sec_Name>
170_C10

> <Concentration_(mM)>
2.5

> <IC50_(µM)>
25

> <Yeast_Active?>
-

> <Pubchem_CID>
743210

$$$$
