
  -ISIS-  08130814242D

 21 22  0  0  0  0  0  0  0  0999 V2000
   -1.0208    2.8125    0.0000 C   0  0  0  0  0  0  0  0  0  0  0  0
    3.4542    5.2792    0.0000 N   0  3  0  0  0  0  0  0  0  0  0  0
    1.9375    2.8500    0.0000 C   0  0  0  0  0  0  0  0  0  0  0  0
   -2.5458    5.4375    0.0000 C   0  0  0  0  0  0  0  0  0  0  0  0
    3.3042    0.3833    0.0000 C   0  0  0  0  0  0  0  0  0  0  0  0
   -2.4708    0.4125    0.0000 C   0  0  0  0  0  0  0  0  0  0  0  0
    6.3500    5.1292    0.0000 O   0  5  0  0  0  0  0  0  0  0  0  0
    2.0875    7.8292    0.0000 O   0  0  0  0  0  0  0  0  0  0  0  0
  -11.5167   10.7667    0.0000 C   0  0  0  0  0  0  0  0  0  0  0  0
   -1.0208    8.0542    0.0000 O   0  0  0  0  0  0  0  0  0  0  0  0
   -5.5833    5.4375    0.0000 N   0  0  0  0  0  0  0  0  0  0  0  0
  -10.0500   13.3375    0.0000 C   0  0  0  0  0  0  0  0  0  0  0  0
   -0.9500   -2.1542    0.0000 C   0  0  0  0  0  0  0  0  0  0  0  0
    1.7792   -2.1292    0.0000 C   0  0  0  0  0  0  0  0  0  0  0  0
   -2.1625   -4.7875    0.0000 Cl  0  0  0  0  0  0  0  0  0  0  0  0
   -7.0667    8.0792    0.0000 C   0  0  0  0  0  0  0  0  0  0  0  0
  -10.0500    8.1792    0.0000 C   0  0  0  0  0  0  0  0  0  0  0  0
  -14.4875   10.7667    0.0000 C   0  0  0  0  0  0  0  0  0  0  0  0
  -11.4792   15.9292    0.0000 C   0  0  0  0  0  0  0  0  0  0  0  0
  -16.0000   13.3792    0.0000 C   0  0  0  0  0  0  0  0  0  0  0  0
  -14.5500   15.9875    0.0000 C   0  0  0  0  0  0  0  0  0  0  0  0
  2  3  1  0  0  0  0
  3  1  1  0  0  0  0
  4  1  1  0  0  0  0
  5  3  2  0  0  0  0
  6  1  2  0  0  0  0
  7  2  1  0  0  0  0
  8  2  2  0  0  0  0
  9 17  1  0  0  0  0
 10  4  2  0  0  0  0
 11  4  1  0  0  0  0
 12  9  2  0  0  0  0
 13  6  1  0  0  0  0
 14 13  2  0  0  0  0
 15 13  1  0  0  0  0
 16 11  1  0  0  0  0
 17 16  1  0  0  0  0
 18  9  1  0  0  0  0
 19 12  1  0  0  0  0
 20 18  1  0  0  0  0
 21 20  1  0  0  0  0
  5 14  1  0  0  0  0
 19 21  1  0  0  0  0
M  CHG  2   2   1   7  -1
M  END
> <#>
1087

> <PLATE>
LAT014

> <ROW>
G

> <COL>
7

> <COORD>
G07

> <LATID>
LAT014G07

> <Supplier>
Chembridge

> <Suplier_CAT#>
6104711

> <Name>
Novel

> <Concentration_(mM)>
2.5

> <IC50_(µM)>
>100

> <Yeast_Active?>
-

> <Pubchem_CID>
873604

$$$$
