
  -ISIS-  08130814242D

 16 15  0  0  0  0  0  0  0  0999 V2000
   -1.2458    0.6458    0.0000 C   0  0  0  0  0  0  0  0  0  0  0  0
   -1.3333    1.3708    0.0000 C   0  0  0  0  0  0  0  0  0  0  0  0
   -2.0708    1.6833    0.0000 C   0  0  0  0  0  0  0  0  0  0  0  0
   -0.5500    0.3500    0.0000 C   0  0  0  0  0  0  0  0  0  0  0  0
   -2.6708    1.2125    0.0000 C   0  0  0  0  0  0  0  0  0  0  0  0
    0.0542    0.8000    0.0000 C   0  0  0  0  0  0  0  0  0  0  0  0
   -1.8708    0.1625    0.0000 C   0  0  0  0  0  0  0  0  0  0  0  0
    0.7875    0.5125    0.0000 N   0  0  0  0  0  0  0  0  0  0  0  0
   -0.4625   -0.4042    0.0000 O   0  0  0  0  0  0  0  0  0  0  0  0
   -2.5833    0.4500    0.0000 C   0  0  0  0  0  0  0  0  0  0  0  0
   -2.0458    2.4208    0.0000 O   0  0  0  0  0  0  0  0  0  0  0  0
   -3.4333    1.5000    0.0000 O   0  0  0  0  0  0  0  0  0  0  0  0
    0.9042   -0.2500    0.0000 C   0  0  3  0  0  0  0  0  0  0  0  0
    0.3292   -0.8792    0.0000 C   0  0  0  0  0  0  0  0  0  0  0  0
    1.5500   -0.6167    0.0000 C   0  0  0  0  0  0  0  0  0  0  0  0
    1.6667    0.5958    0.0000 Cl  0  0  0  0  0  0  0  0  0  0  0  0
  2  1  1  0  0  0  0
  3  2  2  0  0  0  0
  4  1  1  0  0  0  0
  5 10  2  0  0  0  0
  6  4  1  0  0  0  0
  7  1  2  0  0  0  0
  8  6  1  0  0  0  0
  9  4  2  0  0  0  0
 10  7  1  0  0  0  0
 11  3  1  0  0  0  0
 12  5  1  0  0  0  0
 13  8  1  0  0  0  0
 14 13  1  0  0  0  0
 15 13  1  0  0  0  0
  5  3  1  0  0  0  0
M  END
> <#>
1177

> <PLATE>
LAT015

> <ROW>
A

> <COL>
9

> <COORD>
A09

> <LATID>
LAT015A09

> <Supplier>
Chembridge

> <Suplier_CAT#>
5147768

> <Name>
Novel

> <Concentration_(mM)>
2.5

> <IC50_(µM)>
inactive

> <Yeast_Active?>
-

> <Pubchem_CID>
8465

$$$$
