
  -ISIS-  08130814242D

 18 19  0  0  0  0  0  0  0  0999 V2000
   -2.0708    0.4458    0.0000 C   0  0  0  0  0  0  0  0  0  0  0  0
   -2.0708   -0.4042    0.0000 C   0  0  0  0  0  0  0  0  0  0  0  0
   -1.3208    0.8833    0.0000 C   0  0  0  0  0  0  0  0  0  0  0  0
   -2.8125    0.8708    0.0000 N   0  0  0  0  0  0  0  0  0  0  0  0
   -0.5625   -2.1375    0.0000 C   0  0  0  0  0  0  0  0  0  0  0  0
   -3.5500    0.4625    0.0000 C   0  0  0  0  0  0  0  0  0  0  0  0
    0.2000   -1.6875    0.0000 C   0  0  0  0  0  0  0  0  0  0  0  0
   -0.3625   -2.9875    0.0000 O   0  0  0  0  0  0  0  0  0  0  0  0
   -1.3125   -0.8375    0.0000 C   0  0  0  0  0  0  0  0  0  0  0  0
    0.8500   -2.2375    0.0000 O   0  0  0  0  0  0  0  0  0  0  0  0
    0.5167   -3.0542    0.0000 C   0  0  0  0  0  0  0  0  0  0  0  0
   -1.3000   -1.7042    0.0000 C   0  0  0  0  0  0  0  0  0  0  0  0
   -1.3208    1.7458    0.0000 O   0  0  0  0  0  0  0  0  0  0  0  0
   -3.5458   -0.4292    0.0000 O   0  0  0  0  0  0  0  0  0  0  0  0
    0.1875   -0.8292    0.0000 C   0  0  0  0  0  0  0  0  0  0  0  0
   -0.5625    0.4500    0.0000 O   0  0  0  0  0  0  0  0  0  0  0  0
   -0.5708   -0.4000    0.0000 C   0  0  0  0  0  0  0  0  0  0  0  0
   -4.3208    0.9000    0.0000 C   0  0  0  0  0  0  0  0  0  0  0  0
  2  1  2  0  0  0  0
  3  1  1  0  0  0  0
  4  1  1  0  0  0  0
  5 12  2  0  0  0  0
  6  4  1  0  0  0  0
  7 15  2  0  0  0  0
  8  5  1  0  0  0  0
  9  2  1  0  0  0  0
 10  7  1  0  0  0  0
 11  8  1  0  0  0  0
 12  9  1  0  0  0  0
 13  3  2  0  0  0  0
 14  6  2  0  0  0  0
 15 17  1  0  0  0  0
 16  3  1  0  0  0  0
 17  9  2  0  0  0  0
 18  6  1  0  0  0  0
  5  7  1  0  0  0  0
 10 11  1  0  0  0  0
M  END
> <#>
2050

> <PLATE>
LAT026

> <ROW>
B

> <COL>
8

> <COORD>
B08

> <LATID>
LAT026B08

> <Supplier>
Chembridge

> <Suplier_CAT#>
5558887

> <Sec_Name>
170_E04

> <Concentration_(mM)>
2.5

> <IC50_(µM)>
inactive

> <Yeast_Active?>
-

> <Pubchem_CID>
723289

$$$$
