
  -ISIS-  08130814242D

 21 23  0  0  0  0  0  0  0  0999 V2000
    3.9167   -2.2375    0.0000 C   0  0  3  0  0  0  0  0  0  0  0  0
    3.2667   -1.8542    0.0000 O   0  0  0  0  0  0  0  0  0  0  0  0
    4.5667   -1.8542    0.0000 C   0  0  0  0  0  0  0  0  0  0  0  0
    3.2667   -3.3667    0.0000 O   0  0  0  0  0  0  0  0  0  0  0  0
    2.6042   -2.2375    0.0000 C   0  0  0  0  0  0  0  0  0  0  0  0
    5.8667   -1.8542    0.0000 N   0  0  0  0  0  0  0  0  0  0  0  0
    3.9167   -2.9875    0.0000 C   0  0  0  0  0  0  0  0  0  0  0  0
    2.6042   -2.9875    0.0000 C   0  0  0  0  0  0  0  0  0  0  0  0
    5.2167   -2.2375    0.0000 N   0  0  0  0  0  0  0  0  0  0  0  0
    4.5667   -1.1042    0.0000 O   0  0  0  0  0  0  0  0  0  0  0  0
    8.4667   -1.8542    0.0000 N   0  0  0  0  0  0  0  0  0  0  0  0
    6.5167   -2.2375    0.0000 C   0  0  0  0  0  0  0  0  0  0  0  0
    7.1667   -1.8542    0.0000 C   0  0  0  0  0  0  0  0  0  0  0  0
    7.8167   -2.2375    0.0000 C   0  0  0  0  0  0  0  0  0  0  0  0
    1.9542   -1.8542    0.0000 C   0  0  0  0  0  0  0  0  0  0  0  0
    8.4667   -1.1042    0.0000 C   0  0  0  0  0  0  0  0  0  0  0  0
    1.9542   -3.3667    0.0000 C   0  0  0  0  0  0  0  0  0  0  0  0
    7.1667   -1.1042    0.0000 C   0  0  0  0  0  0  0  0  0  0  0  0
    7.8167   -0.7375    0.0000 C   0  0  0  0  0  0  0  0  0  0  0  0
    1.3042   -2.2375    0.0000 C   0  0  0  0  0  0  0  0  0  0  0  0
    1.3042   -2.9875    0.0000 C   0  0  0  0  0  0  0  0  0  0  0  0
  2  1  1  0  0  0  0
  3  1  1  0  0  0  0
  4  7  1  0  0  0  0
  5  2  1  0  0  0  0
  6  9  1  0  0  0  0
  7  1  1  0  0  0  0
  8  4  1  0  0  0  0
  9  3  1  0  0  0  0
 10  3  2  0  0  0  0
 11 14  2  0  0  0  0
 12  6  2  0  0  0  0
 13 12  1  0  0  0  0
 14 13  1  0  0  0  0
 15  5  1  0  0  0  0
 16 19  2  0  0  0  0
 17  8  1  0  0  0  0
 18 13  2  0  0  0  0
 19 18  1  0  0  0  0
 20 15  2  0  0  0  0
 21 17  2  0  0  0  0
  8  5  2  0  0  0  0
 21 20  1  0  0  0  0
 16 11  1  0  0  0  0
M  END
> <#>
1594

> <PLATE>
LAT020

> <ROW>
B

> <COL>
11

> <COORD>
B11

> <LATID>
LAT020B11

> <Supplier>
Chembridge

> <Suplier_CAT#>
5249805

> <Name>
Novel

> <Concentration_(mM)>
2.5

> <IC50_(µM)>
inactive

> <Yeast_Active?>
-

> <Pubchem_CID>
790645

$$$$
