
  -ISIS-  08130814242D

 28 31  0  0  0  0  0  0  0  0999 V2000
   -2.0458    1.0958    0.0000 C   0  0  0  0  0  0  0  0  0  0  0  0
   -2.4625    1.3208    0.0000 C   0  0  0  0  0  0  0  0  0  0  0  0
   -2.0458    0.6208    0.0000 C   0  0  0  0  0  0  0  0  0  0  0  0
   -2.4625    0.3833    0.0000 C   0  0  0  0  0  0  0  0  0  0  0  0
   -2.8708    1.0958    0.0000 C   0  0  0  0  0  0  0  0  0  0  0  0
   -2.8708    0.6208    0.0000 C   0  0  0  0  0  0  0  0  0  0  0  0
   -1.6333    1.3208    0.0000 C   0  0  0  0  0  0  0  0  0  0  0  0
   -1.2208    1.0958    0.0000 C   0  0  0  0  0  0  0  0  0  0  0  0
   -1.6333    0.3833    0.0000 C   0  0  0  0  0  0  0  0  0  0  0  0
   -0.8833    1.3500    0.0000 N   0  0  0  0  0  0  0  0  0  0  0  0
   -2.4458    1.7708    0.0000 O   0  0  0  0  0  0  0  0  0  0  0  0
   -2.4333    0.0500    0.0000 O   0  0  0  0  0  0  0  0  0  0  0  0
    0.8375    0.4500    0.0000 C   0  0  3  0  0  0  0  0  0  0  0  0
    0.4542    0.6208    0.0000 C   0  0  0  0  0  0  0  0  0  0  0  0
   -1.2208    0.6208    0.0000 C   0  0  0  0  0  0  0  0  0  0  0  0
   -0.3958    0.9625    0.0000 C   0  0  0  0  0  0  0  0  0  0  0  0
    0.3875    1.0708    0.0000 C   0  0  0  0  0  0  0  0  0  0  0  0
    0.0792    0.3500    0.0000 C   0  0  0  0  0  0  0  0  0  0  0  0
   -1.6000    1.6208    0.0000 O   0  0  0  0  0  0  0  0  0  0  0  0
   -0.3208    0.5333    0.0000 C   0  0  0  0  0  0  0  0  0  0  0  0
   -0.0125    1.2333    0.0000 C   0  0  0  0  0  0  0  0  0  0  0  0
   -3.2958    1.3208    0.0000 C   0  0  0  0  0  0  0  0  0  0  0  0
   -3.2958    0.3833    0.0000 C   0  0  0  0  0  0  0  0  0  0  0  0
    1.2542    0.6458    0.0000 C   0  0  0  0  0  0  0  0  0  0  0  0
    1.2000    0.2708    0.0000 C   0  0  0  0  0  0  0  0  0  0  0  0
    0.8375   -0.0167    0.0000 C   0  0  0  0  0  0  0  0  0  0  0  0
   -3.7000    1.0958    0.0000 C   0  0  0  0  0  0  0  0  0  0  0  0
   -3.7000    0.6208    0.0000 C   0  0  0  0  0  0  0  0  0  0  0  0
  2  1  1  0  0  0  0
  3  1  2  0  0  0  0
  4  3  1  0  0  0  0
  5  2  1  0  0  0  0
  6  4  1  0  0  0  0
  7  1  1  0  0  0  0
  8  7  2  0  0  0  0
  9  3  1  0  0  0  0
 10  8  1  0  0  0  0
 11  2  2  0  0  0  0
 12  4  2  0  0  0  0
 13 14  1  0  0  0  0
 14 17  2  0  0  0  0
 15  8  1  0  0  0  0
 16 10  1  0  0  0  0
 17 21  1  0  0  0  0
 18 20  2  0  0  0  0
 19  7  1  0  0  0  0
 20 16  1  0  0  0  0
 21 16  2  0  0  0  0
 22  5  1  0  0  0  0
 23  6  1  0  0  0  0
 24 13  1  0  0  0  0
 25 13  1  0  0  0  0
 26 13  1  0  0  0  0
 27 22  2  0  0  0  0
 28 23  2  0  0  0  0
  9 15  2  0  0  0  0
  6  5  2  0  0  0  0
 27 28  1  0  0  0  0
 18 14  1  0  0  0  0
M  END
> <#>
1192

> <PLATE>
LAT015

> <ROW>
H

> <COL>
10

> <COORD>
H10

> <LATID>
LAT015H10

> <Supplier>
Chembridge

> <Suplier_CAT#>
5627513

> <Name>
Novel

> <Concentration_(mM)>
2.5

> <IC50_(µM)>
inactive

> <Yeast_Active?>
-

> <Pubchem_CID>
NULL

$$$$
