
  -ISIS-  08130814242D

 21 22  0  0  0  0  0  0  0  0999 V2000
   -2.2958    0.4625    0.0000 C   0  0  0  0  0  0  0  0  0  0  0  0
   -1.4833    0.9333    0.0000 C   0  0  0  0  0  0  0  0  0  0  0  0
   -0.6708    0.4708    0.0000 C   0  0  0  0  0  0  0  0  0  0  0  0
    0.1292    0.9458    0.0000 C   0  0  0  0  0  0  0  0  0  0  0  0
    0.9375    0.4833    0.0000 C   0  0  0  0  0  0  0  0  0  0  0  0
   -3.1000    0.9333    0.0000 C   0  0  0  0  0  0  0  0  0  0  0  0
   -2.2958   -0.4792    0.0000 C   0  0  0  0  0  0  0  0  0  0  0  0
   -1.4958    1.8625    0.0000 O   0  0  0  0  0  0  0  0  0  0  0  0
    1.7042    0.9625    0.0000 C   0  0  0  0  0  0  0  0  0  0  0  0
    0.1167    1.8708    0.0000 O   0  0  0  0  0  0  0  0  0  0  0  0
   -3.9125    0.4625    0.0000 C   0  0  0  0  0  0  0  0  0  0  0  0
   -3.1000   -0.9500    0.0000 C   0  0  0  0  0  0  0  0  0  0  0  0
    2.5500    0.5333    0.0000 C   0  0  0  0  0  0  0  0  0  0  0  0
   -3.9125   -0.4792    0.0000 C   0  0  0  0  0  0  0  0  0  0  0  0
   -3.1000    1.8625    0.0000 O   0  0  0  0  0  0  0  0  0  0  0  0
    3.3375    0.9958    0.0000 F   0  0  0  0  0  0  0  0  0  0  0  0
   -3.1000   -1.8667    0.0000 O   0  0  0  0  0  0  0  0  0  0  0  0
    0.9667   -0.4542    0.0000 C   0  0  0  0  0  0  0  0  0  0  0  0
    1.7875   -0.8792    0.0000 C   0  0  0  0  0  0  0  0  0  0  0  0
    2.5792   -0.3792    0.0000 C   0  0  0  0  0  0  0  0  0  0  0  0
   -2.3125   -2.3292    0.0000 C   0  0  0  0  0  0  0  0  0  0  0  0
  2  1  1  0  0  0  0
  3  2  1  0  0  0  0
  4  3  1  0  0  0  0
  5  4  1  0  0  0  0
  6  1  1  0  0  0  0
  7  1  2  0  0  0  0
  8  2  2  0  0  0  0
  9  5  1  0  0  0  0
 10  4  2  0  0  0  0
 11  6  2  0  0  0  0
 12  7  1  0  0  0  0
 13  9  2  0  0  0  0
 14 12  2  0  0  0  0
 15  6  1  0  0  0  0
 16 13  1  0  0  0  0
 17 12  1  0  0  0  0
 18  5  2  0  0  0  0
 19 18  1  0  0  0  0
 20 19  2  0  0  0  0
 21 17  1  0  0  0  0
 14 11  1  0  0  0  0
 20 13  1  0  0  0  0
M  END
> <#>
1205

> <PLATE>
LAT016

> <ROW>
E

> <COL>
2

> <COORD>
E02

> <LATID>
LAT016E02

> <Supplier>
Chembridge

> <Suplier_CAT#>
5813859

> <Name>
Novel

> <Concentration_(mM)>
2.5

> <IC50_(µM)>
>100

> <Yeast_Active?>
-

> <Pubchem_CID>
873956

$$$$
