
  -ISIS-  08130814242D

 21 23  0  0  0  0  0  0  0  0999 V2000
    4.1375   -1.5375    0.0000 C   0  0  0  0  0  0  0  0  0  0  0  0
    4.2167   -2.2875    0.0000 C   0  0  0  0  0  0  0  0  0  0  0  0
    4.9500   -2.4375    0.0000 N   0  0  3  0  0  0  0  0  0  0  0  0
    4.8292   -1.2292    0.0000 C   0  0  0  0  0  0  0  0  0  0  0  0
    5.3292   -1.7875    0.0000 C   0  0  0  0  0  0  0  0  0  0  0  0
    3.4875   -1.1542    0.0000 N   0  0  0  0  0  0  0  0  0  0  0  0
    2.1875   -1.1542    0.0000 C   0  0  0  0  0  0  0  0  0  0  0  0
    2.8375   -1.5375    0.0000 N   0  0  0  0  0  0  0  0  0  0  0  0
    3.6542   -2.7875    0.0000 O   0  0  0  0  0  0  0  0  0  0  0  0
    1.5375   -1.5375    0.0000 C   0  0  0  0  0  0  0  0  0  0  0  0
    1.5375   -2.2875    0.0000 N   0  0  0  0  0  0  0  0  0  0  0  0
    2.1875   -0.4042    0.0000 O   0  0  0  0  0  0  0  0  0  0  0  0
    5.2542   -3.1292    0.0000 C   0  0  0  0  0  0  0  0  0  0  0  0
    5.0542   -0.5167    0.0000 C   0  0  0  0  0  0  0  0  0  0  0  0
    6.0542   -1.6375    0.0000 C   0  0  0  0  0  0  0  0  0  0  0  0
    0.8875   -2.6667    0.0000 C   0  0  0  0  0  0  0  0  0  0  0  0
    0.8875   -1.1542    0.0000 C   0  0  0  0  0  0  0  0  0  0  0  0
    5.7875   -0.3667    0.0000 C   0  0  0  0  0  0  0  0  0  0  0  0
    6.3000   -0.9167    0.0000 C   0  0  0  0  0  0  0  0  0  0  0  0
    0.2375   -2.2875    0.0000 C   0  0  0  0  0  0  0  0  0  0  0  0
    0.2375   -1.5375    0.0000 C   0  0  0  0  0  0  0  0  0  0  0  0
  2  1  1  0  0  0  0
  3  2  1  0  0  0  0
  4  1  1  0  0  0  0
  5  4  2  0  0  0  0
  6  1  2  0  0  0  0
  7  8  1  0  0  0  0
  8  6  1  0  0  0  0
  9  2  2  0  0  0  0
 10  7  1  0  0  0  0
 11 10  2  0  0  0  0
 12  7  2  0  0  0  0
 13  3  1  0  0  0  0
 14  4  1  0  0  0  0
 15  5  1  0  0  0  0
 16 11  1  0  0  0  0
 17 10  1  0  0  0  0
 18 14  2  0  0  0  0
 19 18  1  0  0  0  0
 20 21  1  0  0  0  0
 21 17  2  0  0  0  0
  3  5  1  0  0  0  0
 15 19  2  0  0  0  0
 20 16  2  0  0  0  0
M  END
> <#>
1768

> <PLATE>
LAT023

> <ROW>
H

> <COL>
2

> <COORD>
H02

> <LATID>
LAT023H02

> <Supplier>
Chembridge

> <Suplier_CAT#>
5524452

> <Name>
Novel

> <Sec_Name>
146_E09

> <Concentration_(mM)>
2.5

> <IC50_(µM)>
15

> <Yeast_Active?>
-

> <Pubchem_CID>
NULL

$$$$
