
  -ISIS-  08130814242D

 18 19  0  0  0  0  0  0  0  0999 V2000
   -2.5708    1.0500    0.0000 C   0  0  0  0  0  0  0  0  0  0  0  0
   -1.6125    0.4958    0.0000 N   0  0  3  0  0  0  0  0  0  0  0  0
   -2.5708    2.1708    0.0000 C   0  0  0  0  0  0  0  0  0  0  0  0
   -1.8500   -0.6042    0.0000 N   0  0  0  0  0  0  0  0  0  0  0  0
   -3.3958    0.2958    0.0000 C   0  0  0  0  0  0  0  0  0  0  0  0
   -0.6500    2.1500    0.0000 N   0  0  0  0  0  0  0  0  0  0  0  0
   -2.9333   -0.7042    0.0000 C   0  0  0  0  0  0  0  0  0  0  0  0
    1.2667    2.1500    0.0000 C   0  0  0  0  0  0  0  0  0  0  0  0
   -1.6125    2.7125    0.0000 N   0  0  0  0  0  0  0  0  0  0  0  0
   -3.5333    2.7125    0.0000 O   0  0  0  0  0  0  0  0  0  0  0  0
    2.2292    2.6958    0.0000 C   0  0  0  0  0  0  0  0  0  0  0  0
    0.3042    2.7125    0.0000 C   0  0  0  0  0  0  0  0  0  0  0  0
    2.2292    3.8125    0.0000 O   0  0  0  0  0  0  0  0  0  0  0  0
   -0.5958    0.9500    0.0000 C   0  0  0  0  0  0  0  0  0  0  0  0
    1.2667    1.0333    0.0000 C   0  0  0  0  0  0  0  0  0  0  0  0
    3.1875    2.1500    0.0000 C   0  0  0  0  0  0  0  0  0  0  0  0
    2.2292    0.4708    0.0000 C   0  0  0  0  0  0  0  0  0  0  0  0
    3.1875    1.0333    0.0000 C   0  0  0  0  0  0  0  0  0  0  0  0
  2  1  1  0  0  0  0
  3  1  1  0  0  0  0
  4  2  1  0  0  0  0
  5  1  2  0  0  0  0
  6  9  1  0  0  0  0
  7  5  1  0  0  0  0
  8 12  1  0  0  0  0
  9  3  1  0  0  0  0
 10  3  2  0  0  0  0
 11  8  1  0  0  0  0
 12  6  2  0  0  0  0
 13 11  1  0  0  0  0
 14  2  1  0  0  0  0
 15  8  2  0  0  0  0
 16 11  2  0  0  0  0
 17 15  1  0  0  0  0
 18 17  2  0  0  0  0
  4  7  2  0  0  0  0
 18 16  1  0  0  0  0
M  END
> <#>
840

> <PLATE>
LAT011

> <ROW>
H

> <COL>
6

> <COORD>
H06

> <LATID>
LAT011H06

> <Supplier>
Chembridge

> <Suplier_CAT#>
5647129

> <Name>
Novel

> <Sec_Name>
196_F07

> <Concentration_(mM)>
2.5

> <IC50_(µM)>
96

> <Yeast_Active?>
-

> <Pubchem_CID>
NULL

$$$$
