
  -ISIS-  08130814242D

 29 31  0  0  0  0  0  0  0  0999 V2000
    3.9000    1.2625    0.0000 S   0  0  3  0  0  0  0  0  0  0  0  0
    7.7917    2.7708    0.0000 C   0  0  0  0  0  0  0  0  0  0  0  0
    3.3667    1.7958    0.0000 N   0  0  0  0  0  0  0  0  0  0  0  0
    4.5417    1.6375    0.0000 C   0  0  0  0  0  0  0  0  0  0  0  0
    8.4417    2.3958    0.0000 N   0  0  0  0  0  0  0  0  0  0  0  0
    3.3250    0.7833    0.0000 O   0  0  0  0  0  0  0  0  0  0  0  0
    4.3292    0.6500    0.0000 O   0  0  0  0  0  0  0  0  0  0  0  0
    7.1417    2.3958    0.0000 C   0  0  3  0  0  0  0  0  0  0  0  0
    6.4917    2.7708    0.0000 O   0  0  0  0  0  0  0  0  0  0  0  0
    7.7917    3.5208    0.0000 O   0  0  0  0  0  0  0  0  0  0  0  0
    2.3042    2.8583    0.0000 N   0  0  0  0  0  0  0  0  0  0  0  0
    2.6417    1.6000    0.0000 C   0  0  0  0  0  0  0  0  0  0  0  0
    5.1917    1.2625    0.0000 C   0  0  0  0  0  0  0  0  0  0  0  0
    4.5417    2.3958    0.0000 C   0  0  0  0  0  0  0  0  0  0  0  0
    2.1125    2.1333    0.0000 C   0  0  0  0  0  0  0  0  0  0  0  0
    5.8417    2.3958    0.0000 C   0  0  0  0  0  0  0  0  0  0  0  0
    9.0917    2.7708    0.0000 C   0  0  3  0  0  0  0  0  0  0  0  0
    5.1917    2.7708    0.0000 C   0  0  0  0  0  0  0  0  0  0  0  0
    5.8417    1.6375    0.0000 C   0  0  0  0  0  0  0  0  0  0  0  0
    1.7750    3.3958    0.0000 C   0  0  0  0  0  0  0  0  0  0  0  0
    7.1417    1.6375    0.0000 C   0  0  0  0  0  0  0  0  0  0  0  0
    1.3875    1.9375    0.0000 C   0  0  0  0  0  0  0  0  0  0  0  0
    9.7417    2.3958    0.0000 C   0  0  0  0  0  0  0  0  0  0  0  0
    9.0917    3.5208    0.0000 C   0  0  0  0  0  0  0  0  0  0  0  0
    1.0542    3.1958    0.0000 C   0  0  0  0  0  0  0  0  0  0  0  0
    0.8542    2.4708    0.0000 C   0  0  0  0  0  0  0  0  0  0  0  0
    9.7417    3.8958    0.0000 C   0  0  0  0  0  0  0  0  0  0  0  0
   10.3917    2.7708    0.0000 C   0  0  0  0  0  0  0  0  0  0  0  0
   10.3917    3.5208    0.0000 C   0  0  0  0  0  0  0  0  0  0  0  0
  2  8  1  0  0  0  0
  3  1  1  0  0  0  0
  4  1  1  0  0  0  0
  5  2  1  0  0  0  0
  6  1  2  0  0  0  0
  7  1  2  0  0  0  0
  8  9  1  0  0  0  0
  9 16  1  0  0  0  0
 10  2  2  0  0  0  0
 11 15  2  0  0  0  0
 12  3  1  0  0  0  0
 13  4  1  0  0  0  0
 14  4  2  0  0  0  0
 15 12  1  0  0  0  0
 16 18  2  0  0  0  0
 17  5  1  0  0  0  0
 18 14  1  0  0  0  0
 19 13  2  0  0  0  0
 20 11  1  0  0  0  0
 21  8  1  0  0  0  0
 22 15  1  0  0  0  0
 23 17  1  0  0  0  0
 24 17  1  0  0  0  0
 25 26  1  0  0  0  0
 26 22  2  0  0  0  0
 27 24  1  0  0  0  0
 28 23  1  0  0  0  0
 29 27  1  0  0  0  0
 19 16  1  0  0  0  0
 25 20  2  0  0  0  0
 28 29  1  0  0  0  0
M  END
> <#>
1454

> <PLATE>
LAT019

> <ROW>
F

> <COL>
3

> <COORD>
F03

> <LATID>
LAT019F03

> <Supplier>
Chembridge

> <Suplier_CAT#>
9024918

> <Name>
Novel

> <Concentration_(mM)>
2.5

> <IC50_(µM)>
>100

> <Yeast_Active?>
-

> <Pubchem_CID>
6459875

$$$$
