
  -ISIS-  08130814242D

 19 20  0  0  0  0  0  0  0  0999 V2000
    0.6792    0.6125    0.0000 C   0  0  0  0  0  0  0  0  0  0  0  0
    1.8000    1.2500    0.0000 C   0  0  0  0  0  0  0  0  0  0  0  0
   -0.4625    1.2500    0.0000 C   0  0  0  0  0  0  0  0  0  0  0  0
   -1.6000    0.5958    0.0000 C   0  0  0  0  0  0  0  0  0  0  0  0
    2.9167    0.6208    0.0000 C   0  0  0  0  0  0  0  0  0  0  0  0
   -0.4625    2.5000    0.0000 O   0  0  0  0  0  0  0  0  0  0  0  0
    2.9167   -0.7292    0.0000 C   0  0  0  0  0  0  0  0  0  0  0  0
   -1.6000   -0.7167    0.0000 C   0  0  0  0  0  0  0  0  0  0  0  0
   -2.7208    1.2500    0.0000 C   0  0  0  0  0  0  0  0  0  0  0  0
   -3.8625   -0.7042    0.0000 C   0  0  0  0  0  0  0  0  0  0  0  0
   -2.7458   -1.3667    0.0000 C   0  0  0  0  0  0  0  0  0  0  0  0
   -3.8625    0.6125    0.0000 C   0  0  0  0  0  0  0  0  0  0  0  0
    1.8000   -1.3875    0.0000 O   0  0  0  0  0  0  0  0  0  0  0  0
   -5.0208   -1.3500    0.0000 O   0  0  0  0  0  0  0  0  0  0  0  0
    4.0542    1.2333    0.0000 C   0  0  0  0  0  0  0  0  0  0  0  0
    4.0375   -1.3667    0.0000 C   0  0  0  0  0  0  0  0  0  0  0  0
    1.8000   -2.6667    0.0000 C   0  0  0  0  0  0  0  0  0  0  0  0
    5.1792   -0.7292    0.0000 C   0  0  0  0  0  0  0  0  0  0  0  0
    5.1792    0.5958    0.0000 C   0  0  0  0  0  0  0  0  0  0  0  0
  2  1  2  0  0  0  0
  3  1  1  0  0  0  0
  4  3  1  0  0  0  0
  5  2  1  0  0  0  0
  6  3  2  0  0  0  0
  7  5  2  0  0  0  0
  8  4  2  0  0  0  0
  9  4  1  0  0  0  0
 10 12  1  0  0  0  0
 11  8  1  0  0  0  0
 12  9  2  0  0  0  0
 13  7  1  0  0  0  0
 14 10  1  0  0  0  0
 15  5  1  0  0  0  0
 16  7  1  0  0  0  0
 17 13  1  0  0  0  0
 18 19  1  0  0  0  0
 19 15  2  0  0  0  0
 11 10  2  0  0  0  0
 18 16  2  0  0  0  0
M  END
> <#>
1224

> <PLATE>
LAT016

> <ROW>
H

> <COL>
4

> <COORD>
H04

> <LATID>
LAT016H04

> <Supplier>
Chembridge

> <Suplier_CAT#>
6134450

> <Name>
Novel

> <Concentration_(mM)>
2.5

> <IC50_(µM)>
>100

> <Yeast_Active?>
-

> <Pubchem_CID>
2887542

$$$$
