
  -ISIS-  08130814242D

 33 36  0  0  0  0  0  0  0  0999 V2000
   -2.4458   -0.6000    0.0000 S   0  0  3  0  0  0  0  0  0  0  0  0
    3.2792    3.2708    0.0000 S   0  0  3  0  0  0  0  0  0  0  0  0
   -1.1208    0.1833    0.0000 C   0  0  0  0  0  0  0  0  0  0  0  0
   -2.0000    0.1833    0.0000 N   0  0  0  0  0  0  0  0  0  0  0  0
   -0.6208    0.8833    0.0000 C   0  0  0  0  0  0  0  0  0  0  0  0
    0.2167   -0.2792    0.0000 N   0  0  0  0  0  0  0  0  0  0  0  0
    0.2167    0.6208    0.0000 C   0  0  0  0  0  0  0  0  0  0  0  0
   -0.6208   -0.5375    0.0000 N   0  0  0  0  0  0  0  0  0  0  0  0
    3.2792    2.3833    0.0000 N   0  0  0  0  0  0  0  0  0  0  0  0
   -2.8833   -1.3542    0.0000 C   0  0  0  0  0  0  0  0  0  0  0  0
    3.2792    4.1375    0.0000 C   0  0  0  0  0  0  0  0  0  0  0  0
   -3.2000   -0.1375    0.0000 O   0  0  0  0  0  0  0  0  0  0  0  0
   -1.6625   -1.0375    0.0000 O   0  0  0  0  0  0  0  0  0  0  0  0
    4.1542    3.2708    0.0000 O   0  0  0  0  0  0  0  0  0  0  0  0
    2.4000    3.2708    0.0000 O   0  0  0  0  0  0  0  0  0  0  0  0
    0.9792    1.0625    0.0000 C   0  0  0  0  0  0  0  0  0  0  0  0
   -2.4458   -2.1167    0.0000 C   0  0  0  0  0  0  0  0  0  0  0  0
    4.0375    4.5792    0.0000 C   0  0  0  0  0  0  0  0  0  0  0  0
   -3.7625   -1.3542    0.0000 C   0  0  0  0  0  0  0  0  0  0  0  0
    2.5167    4.5792    0.0000 C   0  0  0  0  0  0  0  0  0  0  0  0
    2.5000    1.9458    0.0000 C   0  0  0  0  0  0  0  0  0  0  0  0
    0.9792    1.9458    0.0000 C   0  0  0  0  0  0  0  0  0  0  0  0
    1.7375    0.6208    0.0000 C   0  0  0  0  0  0  0  0  0  0  0  0
    1.7375    2.3833    0.0000 C   0  0  0  0  0  0  0  0  0  0  0  0
    2.5000    1.0625    0.0000 C   0  0  0  0  0  0  0  0  0  0  0  0
    4.0375    5.4542    0.0000 C   0  0  0  0  0  0  0  0  0  0  0  0
    2.5167    5.4542    0.0000 C   0  0  0  0  0  0  0  0  0  0  0  0
   -2.8833   -2.8792    0.0000 C   0  0  0  0  0  0  0  0  0  0  0  0
   -4.2083   -2.1167    0.0000 C   0  0  0  0  0  0  0  0  0  0  0  0
    3.2792    5.9000    0.0000 C   0  0  0  0  0  0  0  0  0  0  0  0
   -3.7625   -2.8792    0.0000 C   0  0  0  0  0  0  0  0  0  0  0  0
   -4.2208   -3.6542    0.0000 C   0  0  0  0  0  0  0  0  0  0  0  0
    3.2792    6.7792    0.0000 C   0  0  0  0  0  0  0  0  0  0  0  0
  2  9  1  0  0  0  0
  3  4  1  0  0  0  0
  4  1  1  0  0  0  0
  5  3  2  0  0  0  0
  6  8  1  0  0  0  0
  7  5  1  0  0  0  0
  8  3  1  0  0  0  0
  9 21  1  0  0  0  0
 10  1  1  0  0  0  0
 11  2  1  0  0  0  0
 12  1  2  0  0  0  0
 13  1  2  0  0  0  0
 14  2  2  0  0  0  0
 15  2  2  0  0  0  0
 16  7  1  0  0  0  0
 17 10  2  0  0  0  0
 18 11  1  0  0  0  0
 19 10  1  0  0  0  0
 20 11  2  0  0  0  0
 21 25  1  0  0  0  0
 22 16  2  0  0  0  0
 23 16  1  0  0  0  0
 24 22  1  0  0  0  0
 25 23  2  0  0  0  0
 26 18  2  0  0  0  0
 27 20  1  0  0  0  0
 28 17  1  0  0  0  0
 29 19  2  0  0  0  0
 30 27  2  0  0  0  0
 31 29  1  0  0  0  0
 32 31  1  0  0  0  0
 33 30  1  0  0  0  0
 31 28  2  0  0  0  0
  6  7  2  0  0  0  0
 24 21  2  0  0  0  0
 30 26  1  0  0  0  0
M  END
> <#>
1907

> <PLATE>
LAT024

> <ROW>
C

> <COL>
10

> <COORD>
C10

> <LATID>
LAT024C10

> <Supplier>
Chembridge

> <Suplier_CAT#>
5211701

> <Name>
Novel

> <Concentration_(mM)>
2.5

> <IC50_(µM)>
inactive

> <Yeast_Active?>
-

> <Pubchem_CID>
NULL

$$$$
