
  -ISIS-  08130814242D

 17 18  0  0  0  0  0  0  0  0999 V2000
   -0.7708    2.1750    0.0000 C   0  0  0  0  0  0  0  0  0  0  0  0
   -1.5833    3.0833    0.0000 N   0  0  0  0  0  0  0  0  0  0  0  0
   -0.1208    1.8000    0.0000 C   0  0  0  0  0  0  0  0  0  0  0  0
   -1.9583    2.4250    0.0000 O   0  0  0  0  0  0  0  0  0  0  0  0
   -1.4500    1.8708    0.0000 C   0  0  0  0  0  0  0  0  0  0  0  0
   -0.8458    2.9208    0.0000 C   0  0  0  0  0  0  0  0  0  0  0  0
    0.5292    2.1750    0.0000 N   0  0  0  0  0  0  0  0  0  0  0  0
    2.4792    1.8000    0.0000 N   0  0  0  0  0  0  0  0  0  0  0  0
   -0.1208    1.0500    0.0000 O   0  0  0  0  0  0  0  0  0  0  0  0
    1.1792    1.8000    0.0000 C   0  0  0  0  0  0  0  0  0  0  0  0
    1.8292    2.1750    0.0000 C   0  0  0  0  0  0  0  0  0  0  0  0
   -1.6083    1.1375    0.0000 C   0  0  0  0  0  0  0  0  0  0  0  0
   -0.2875    3.4208    0.0000 C   0  0  0  0  0  0  0  0  0  0  0  0
    3.1292    2.1750    0.0000 C   0  0  0  0  0  0  0  0  0  0  0  0
    1.8292    2.9250    0.0000 C   0  0  0  0  0  0  0  0  0  0  0  0
    3.1292    2.9250    0.0000 C   0  0  0  0  0  0  0  0  0  0  0  0
    2.4792    3.3000    0.0000 C   0  0  0  0  0  0  0  0  0  0  0  0
  2  6  2  0  0  0  0
  3  1  1  0  0  0  0
  4  5  1  0  0  0  0
  5  1  2  0  0  0  0
  6  1  1  0  0  0  0
  7  3  1  0  0  0  0
  8 11  2  0  0  0  0
  9  3  2  0  0  0  0
 10  7  1  0  0  0  0
 11 10  1  0  0  0  0
 12  5  1  0  0  0  0
 13  6  1  0  0  0  0
 14  8  1  0  0  0  0
 15 11  1  0  0  0  0
 16 17  1  0  0  0  0
 17 15  2  0  0  0  0
  4  2  1  0  0  0  0
 14 16  2  0  0  0  0
M  END
> <#>
1502

> <PLATE>
LAT019

> <ROW>
F

> <COL>
9

> <COORD>
F09

> <LATID>
LAT019F09

> <Supplier>
Chembridge

> <Suplier_CAT#>
7945555

> <Name>
Novel

> <Concentration_(mM)>
2.5

> <IC50_(µM)>
inactive

> <Yeast_Active?>
-

> <Pubchem_CID>
1245664

$$$$
