
  -ISIS-  08130814242D

 21 23  0  0  0  0  0  0  0  0999 V2000
   -1.5125    1.7000    0.0000 C   0  0  0  0  0  0  0  0  0  0  0  0
   -2.2958    2.1458    0.0000 C   0  0  0  0  0  0  0  0  0  0  0  0
   -1.5125    0.7833    0.0000 C   0  0  0  0  0  0  0  0  0  0  0  0
   -2.2958    0.3458    0.0000 N   0  0  0  0  0  0  0  0  0  0  0  0
   -3.0708    1.7000    0.0000 C   0  0  0  0  0  0  0  0  0  0  0  0
   -0.7125    2.1625    0.0000 C   0  0  0  0  0  0  0  0  0  0  0  0
   -3.0708    0.7833    0.0000 C   0  0  0  0  0  0  0  0  0  0  0  0
    0.0667    1.7208    0.0000 N   0  0  0  0  0  0  0  0  0  0  0  0
   -0.7125    0.3208    0.0000 O   0  0  0  0  0  0  0  0  0  0  0  0
   -0.7125    3.0833    0.0000 O   0  0  0  0  0  0  0  0  0  0  0  0
   -2.2958    3.0625    0.0000 O   0  0  0  0  0  0  0  0  0  0  0  0
    2.4375    2.0333    0.0000 O   0  0  0  0  0  0  0  0  0  0  0  0
    0.8500    2.1625    0.0000 C   0  0  0  0  0  0  0  0  0  0  0  0
    1.6167    1.6958    0.0000 C   0  0  3  0  0  0  0  0  0  0  0  0
   -3.8500    2.1458    0.0000 C   0  0  0  0  0  0  0  0  0  0  0  0
   -3.8500    0.3458    0.0000 C   0  0  0  0  0  0  0  0  0  0  0  0
    3.0375    1.3333    0.0000 C   0  0  0  0  0  0  0  0  0  0  0  0
    1.6542    0.8125    0.0000 C   0  0  0  0  0  0  0  0  0  0  0  0
   -4.6333    1.7000    0.0000 C   0  0  0  0  0  0  0  0  0  0  0  0
   -4.6333    0.7833    0.0000 C   0  0  0  0  0  0  0  0  0  0  0  0
    2.5542    0.5708    0.0000 C   0  0  0  0  0  0  0  0  0  0  0  0
  2  1  2  0  0  0  0
  3  1  1  0  0  0  0
  4  3  1  0  0  0  0
  5  2  1  0  0  0  0
  6  1  1  0  0  0  0
  7  4  1  0  0  0  0
  8  6  1  0  0  0  0
  9  3  2  0  0  0  0
 10  6  2  0  0  0  0
 11  2  1  0  0  0  0
 12 14  1  0  0  0  0
 13  8  1  0  0  0  0
 14 13  1  0  0  0  0
 15  5  2  0  0  0  0
 16  7  2  0  0  0  0
 17 12  1  0  0  0  0
 18 14  1  0  0  0  0
 19 15  1  0  0  0  0
 20 16  1  0  0  0  0
 21 18  1  0  0  0  0
  5  7  1  0  0  0  0
 19 20  2  0  0  0  0
 21 17  1  0  0  0  0
M  END
> <#>
1992

> <PLATE>
LAT025

> <ROW>
H

> <COL>
10

> <COORD>
H10

> <LATID>
LAT025H10

> <Supplier>
Chembridge

> <Suplier_CAT#>
5530593

> <Sec_Name>
152_F03

> <Concentration_(mM)>
2.5

> <IC50_(µM)>
inactive

> <Yeast_Active?>
-

> <Pubchem_CID>
NULL

$$$$
