
  -ISIS-  08130814242D

 26 28  0  0  0  0  0  0  0  0999 V2000
    4.0625   -0.8667    0.0000 S   0  0  3  0  0  0  0  0  0  0  0  0
    4.7792   -1.2792    0.0000 N   0  0  3  0  0  0  0  0  0  0  0  0
    6.2000   -1.2792    0.0000 C   0  0  3  0  0  0  0  0  0  0  0  0
    6.9167   -0.8667    0.0000 C   0  0  0  0  0  0  0  0  0  0  0  0
    5.4875   -0.8625    0.0000 C   0  0  0  0  0  0  0  0  0  0  0  0
    3.3417   -0.4542    0.0000 C   0  0  0  0  0  0  0  0  0  0  0  0
    3.6500   -1.5792    0.0000 O   0  0  0  0  0  0  0  0  0  0  0  0
    4.4750   -0.1542    0.0000 O   0  0  0  0  0  0  0  0  0  0  0  0
    7.6292   -1.2792    0.0000 N   0  0  0  0  0  0  0  0  0  0  0  0
    9.0292   -2.1167    0.0000 N   0  0  0  0  0  0  0  0  0  0  0  0
    6.9167   -0.0417    0.0000 O   0  0  0  0  0  0  0  0  0  0  0  0
    3.3417    0.3833    0.0000 C   0  0  0  0  0  0  0  0  0  0  0  0
    2.6292   -0.8667    0.0000 C   0  0  0  0  0  0  0  0  0  0  0  0
    8.3417   -0.8792    0.0000 C   0  0  0  0  0  0  0  0  0  0  0  0
    9.0500   -1.2917    0.0000 C   0  0  0  0  0  0  0  0  0  0  0  0
    4.7792   -2.1042    0.0000 C   0  0  0  0  0  0  0  0  0  0  0  0
    1.9125   -0.4542    0.0000 C   0  0  0  0  0  0  0  0  0  0  0  0
    2.6292    0.7958    0.0000 C   0  0  0  0  0  0  0  0  0  0  0  0
    1.9125    0.3833    0.0000 C   0  0  0  0  0  0  0  0  0  0  0  0
    6.2000   -2.1042    0.0000 C   0  0  0  0  0  0  0  0  0  0  0  0
    5.4875   -2.5125    0.0000 C   0  0  0  0  0  0  0  0  0  0  0  0
    9.7417   -2.5292    0.0000 C   0  0  0  0  0  0  0  0  0  0  0  0
    9.7542   -0.8792    0.0000 C   0  0  0  0  0  0  0  0  0  0  0  0
    1.1917    0.7958    0.0000 C   0  0  0  0  0  0  0  0  0  0  0  0
   10.4542   -2.1250    0.0000 C   0  0  0  0  0  0  0  0  0  0  0  0
   10.4542   -1.3000    0.0000 C   0  0  0  0  0  0  0  0  0  0  0  0
  2  1  1  0  0  0  0
  3  5  1  0  0  0  0
  4  3  1  0  0  0  0
  5  2  1  0  0  0  0
  6  1  1  0  0  0  0
  7  1  2  0  0  0  0
  8  1  2  0  0  0  0
  9  4  1  0  0  0  0
 10 15  2  0  0  0  0
 11  4  2  0  0  0  0
 12  6  2  0  0  0  0
 13  6  1  0  0  0  0
 14  9  1  0  0  0  0
 15 14  1  0  0  0  0
 16  2  1  0  0  0  0
 17 13  2  0  0  0  0
 18 12  1  0  0  0  0
 19 17  1  0  0  0  0
 20 21  1  0  0  0  0
 21 16  1  0  0  0  0
 22 10  1  0  0  0  0
 23 15  1  0  0  0  0
 24 19  1  0  0  0  0
 25 26  1  0  0  0  0
 26 23  2  0  0  0  0
 18 19  2  0  0  0  0
  3 20  1  0  0  0  0
 25 22  2  0  0  0  0
M  END
> <#>
1535

> <PLATE>
LAT020

> <ROW>
G

> <COL>
3

> <COORD>
G03

> <LATID>
LAT020G03

> <Supplier>
Chembridge

> <Suplier_CAT#>
7789155

> <Name>
Novel

> <Concentration_(mM)>
2.5

> <IC50_(µM)>
>100

> <Yeast_Active?>
-

> <Pubchem_CID>
1090470

$$$$
