
  -ISIS-  08130814242D

 11 11  0  0  0  0  0  0  0  0999 V2000
    7.5211   -5.4100    0.0000 C   0  0  0  0  0  0  0  0  0  0  0  0
    6.8961   -6.4925    0.0000 C   0  0  0  0  0  0  0  0  0  0  0  0
    6.8961   -4.3275    0.0000 O   0  0  0  0  0  0  0  0  0  0  0  0
    8.7711   -5.4100    0.0000 C   0  0  0  0  0  0  0  0  0  0  0  0
    9.3961   -4.3275    0.0000 C   0  0  0  0  0  0  0  0  0  0  0  0
   10.6461   -4.3275    0.0000 C   0  0  0  0  0  0  0  0  0  0  0  0
   11.2711   -5.4100    0.0000 C   0  0  0  0  0  0  0  0  0  0  0  0
   10.6461   -6.4925    0.0000 C   0  0  0  0  0  0  0  0  0  0  0  0
    9.3961   -6.4925    0.0000 C   0  0  0  0  0  0  0  0  0  0  0  0
   12.5211   -5.4100    0.0000 O   0  0  0  0  0  0  0  0  0  0  0  0
    8.7711   -3.2450    0.0000 O   0  0  0  0  0  0  0  0  0  0  0  0
  1  2  1  0  0  0  0
  4  5  1  0  0  0  0
  5  6  2  0  0  0  0
  6  7  1  0  0  0  0
  7  8  2  0  0  0  0
  8  9  1  0  0  0  0
  4  9  2  0  0  0  0
  1  3  2  0  0  0  0
  1  4  1  0  0  0  0
  7 10  1  0  0  0  0
  5 11  1  0  0  0  0
M  END
> <#>
344

> <PLATE>
LAT005

> <ROW>
H

> <COL>
4

> <COORD>
H04

> <LATID>
LAT005H04

> <Supplier>
Aldrich

> <Suplier_CAT#>
D107409

> <Name>
2',4'-Dihydroxyacetophenone

> <Concentration_(mM)>
2.5

> <IC50_(µM)>
inactive

> <Yeast_Active?>
-

> <Pubchem_CID>
6990

$$$$
