
  -ISIS-  08130814242D

 18 19  0  0  0  0  0  0  0  0999 V2000
   -1.7333    1.6708    0.0000 C   0  0  0  0  0  0  0  0  0  0  0  0
   -1.4000    1.1125    0.0000 C   0  0  0  0  0  0  0  0  0  0  0  0
   -0.7833    2.2125    0.0000 N   0  0  0  0  0  0  0  0  0  0  0  0
   -1.4208    2.2125    0.0000 N   0  0  0  0  0  0  0  0  0  0  0  0
   -0.4625    2.7708    0.0000 C   0  0  0  0  0  0  0  0  0  0  0  0
   -0.7625    1.0958    0.0000 O   0  0  0  0  0  0  0  0  0  0  0  0
    0.1792    2.7708    0.0000 C   0  0  0  0  0  0  0  0  0  0  0  0
   -2.3833    1.6708    0.0000 O   0  0  0  0  0  0  0  0  0  0  0  0
   -1.7458    0.5500    0.0000 C   0  0  0  0  0  0  0  0  0  0  0  0
   -0.4708    0.5500    0.0000 C   0  0  0  0  0  0  0  0  0  0  0  0
   -0.7833   -0.0167    0.0000 C   0  0  0  0  0  0  0  0  0  0  0  0
    0.5042    2.2083    0.0000 C   0  0  0  0  0  0  0  0  0  0  0  0
    0.5042    3.3333    0.0000 C   0  0  0  0  0  0  0  0  0  0  0  0
    1.4542    2.7708    0.0000 C   0  0  0  0  0  0  0  0  0  0  0  0
    1.1500    3.3333    0.0000 C   0  0  0  0  0  0  0  0  0  0  0  0
    1.1500    2.2083    0.0000 C   0  0  0  0  0  0  0  0  0  0  0  0
    2.1167    2.7833    0.0000 O   0  0  0  0  0  0  0  0  0  0  0  0
   -0.7958    3.3583    0.0000 C   0  0  0  0  0  0  0  0  0  0  0  0
  2  1  1  0  0  0  0
  3  4  1  0  0  0  0
  4  1  1  0  0  0  0
  5  3  2  0  0  0  0
  6  2  1  0  0  0  0
  7  5  1  0  0  0  0
  8  1  2  0  0  0  0
  9  2  2  0  0  0  0
 10  6  1  0  0  0  0
 11  9  1  0  0  0  0
 12  7  1  0  0  0  0
 13  7  2  0  0  0  0
 14 15  2  0  0  0  0
 15 13  1  0  0  0  0
 16 12  2  0  0  0  0
 17 14  1  0  0  0  0
 18  5  1  0  0  0  0
 11 10  2  0  0  0  0
 16 14  1  0  0  0  0
M  END
> <#>
2002

> <PLATE>
LAT026

> <ROW>
B

> <COL>
2

> <COORD>
B02

> <LATID>
LAT026B02

> <Supplier>
Chembridge

> <Suplier_CAT#>
5573041

> <Sec_Name>
177_F04

> <Concentration_(mM)>
2.5

> <IC50_(µM)>
inactive

> <Yeast_Active?>
-

> <Pubchem_CID>
NULL

$$$$
