
  -ISIS-  08130814242D

 23 25  0  0  0  0  0  0  0  0999 V2000
    5.1042    2.1583    0.0000 C   0  0  0  0  0  0  0  0  0  0  0  0
    5.8375    2.0083    0.0000 C   0  0  0  0  0  0  0  0  0  0  0  0
    6.2125    1.3583    0.0000 C   0  0  0  0  0  0  0  0  0  0  0  0
    6.2125    2.6583    0.0000 C   0  0  0  0  0  0  0  0  0  0  0  0
    6.9625    1.3583    0.0000 C   0  0  0  0  0  0  0  0  0  0  0  0
    5.7042    3.2125    0.0000 O   0  0  0  0  0  0  0  0  0  0  0  0
    5.0250    2.9083    0.0000 C   0  0  0  0  0  0  0  0  0  0  0  0
    7.3375    2.0083    0.0000 C   0  0  0  0  0  0  0  0  0  0  0  0
    6.9625    2.6583    0.0000 C   0  0  0  0  0  0  0  0  0  0  0  0
    4.5417    1.6583    0.0000 C   0  0  0  0  0  0  0  0  0  0  0  0
    3.8292    1.8958    0.0000 C   0  0  0  0  0  0  0  0  0  0  0  0
    3.2750    1.3875    0.0000 N   0  0  0  0  0  0  0  0  0  0  0  0
    1.2917    1.3500    0.0000 N   0  0  0  0  0  0  0  0  0  0  0  0
    3.6750    2.6250    0.0000 O   0  0  0  0  0  0  0  0  0  0  0  0
    7.3375    0.7083    0.0000 Cl  0  0  0  0  0  0  0  0  0  0  0  0
    2.0042    1.1208    0.0000 C   0  0  0  0  0  0  0  0  0  0  0  0
    2.5625    1.6208    0.0000 C   0  0  0  0  0  0  0  0  0  0  0  0
    5.8375    0.7083    0.0000 C   0  0  0  0  0  0  0  0  0  0  0  0
    8.0875    2.0083    0.0000 C   0  0  0  0  0  0  0  0  0  0  0  0
    0.7292    0.8458    0.0000 C   0  0  0  0  0  0  0  0  0  0  0  0
    2.1625    0.3833    0.0000 C   0  0  0  0  0  0  0  0  0  0  0  0
    0.8917    0.1125    0.0000 C   0  0  0  0  0  0  0  0  0  0  0  0
    1.6042   -0.1167    0.0000 C   0  0  0  0  0  0  0  0  0  0  0  0
  2  1  1  0  0  0  0
  3  2  2  0  0  0  0
  4  2  1  0  0  0  0
  5  3  1  0  0  0  0
  6  7  1  0  0  0  0
  7  1  2  0  0  0  0
  8  9  1  0  0  0  0
  9  4  2  0  0  0  0
 10  1  1  0  0  0  0
 11 10  1  0  0  0  0
 12 11  1  0  0  0  0
 13 16  2  0  0  0  0
 14 11  2  0  0  0  0
 15  5  1  0  0  0  0
 16 17  1  0  0  0  0
 17 12  1  0  0  0  0
 18  3  1  0  0  0  0
 19  8  1  0  0  0  0
 20 13  1  0  0  0  0
 21 16  1  0  0  0  0
 22 23  1  0  0  0  0
 23 21  2  0  0  0  0
  4  6  1  0  0  0  0
  5  8  2  0  0  0  0
 22 20  2  0  0  0  0
M  END
> <#>
1589

> <PLATE>
LAT020

> <ROW>
E

> <COL>
10

> <COORD>
E10

> <LATID>
LAT020E10

> <Supplier>
Chembridge

> <Suplier_CAT#>
7992151

> <Name>
Novel

> <Concentration_(mM)>
2.5

> <IC50_(µM)>
93

> <Yeast_Active?>
-

> <Pubchem_CID>
2984880

$$$$
