
  -ISIS-  08130814242D

 29 32  0  0  0  0  0  0  0  0999 V2000
    5.3792    1.4458    0.0000 S   0  0  3  0  0  0  0  0  0  0  0  0
    4.7292    1.0708    0.0000 N   0  0  3  0  0  0  0  0  0  0  0  0
    5.9125    0.9208    0.0000 C   0  0  0  0  0  0  0  0  0  0  0  0
    2.7792   -0.0542    0.0000 C   0  0  0  0  0  0  0  0  0  0  0  0
    5.9542    1.9333    0.0000 O   0  0  0  0  0  0  0  0  0  0  0  0
    4.9500    2.0625    0.0000 O   0  0  0  0  0  0  0  0  0  0  0  0
    5.7167    0.1958    0.0000 C   0  0  0  0  0  0  0  0  0  0  0  0
    2.1292    0.3208    0.0000 N   0  0  0  0  0  0  0  0  0  0  0  0
    6.2500   -0.3375    0.0000 C   0  0  0  0  0  0  0  0  0  0  0  0
    4.0792    1.4458    0.0000 C   0  0  0  0  0  0  0  0  0  0  0  0
    4.7292    0.3208    0.0000 C   0  0  0  0  0  0  0  0  0  0  0  0
    3.4292    0.3208    0.0000 C   0  0  3  0  0  0  0  0  0  0  0  0
    0.8292    1.0708    0.0000 N   0  0  0  0  0  0  0  0  0  0  0  0
    6.6375    1.1125    0.0000 C   0  0  0  0  0  0  0  0  0  0  0  0
    2.7792   -0.8042    0.0000 O   0  0  0  0  0  0  0  0  0  0  0  0
    4.0792   -0.0542    0.0000 C   0  0  0  0  0  0  0  0  0  0  0  0
    3.4292    1.0708    0.0000 C   0  0  0  0  0  0  0  0  0  0  0  0
    6.9667   -0.1417    0.0000 C   0  0  0  0  0  0  0  0  0  0  0  0
    7.1667    0.5833    0.0000 C   0  0  0  0  0  0  0  0  0  0  0  0
    1.4792   -0.0542    0.0000 C   0  0  0  0  0  0  0  0  0  0  0  0
    0.8292    0.3208    0.0000 C   0  0  0  0  0  0  0  0  0  0  0  0
    0.1875    1.4458    0.0000 C   0  0  0  0  0  0  0  0  0  0  0  0
    6.0542   -1.0625    0.0000 C   0  0  0  0  0  0  0  0  0  0  0  0
    7.5042   -0.6750    0.0000 C   0  0  0  0  0  0  0  0  0  0  0  0
    0.1875   -0.0542    0.0000 C   0  0  0  0  0  0  0  0  0  0  0  0
   -0.4625    1.0708    0.0000 C   0  0  0  0  0  0  0  0  0  0  0  0
    6.5792   -1.5917    0.0000 C   0  0  0  0  0  0  0  0  0  0  0  0
    7.3042   -1.4000    0.0000 C   0  0  0  0  0  0  0  0  0  0  0  0
   -0.4625    0.3208    0.0000 C   0  0  0  0  0  0  0  0  0  0  0  0
  2  1  1  0  0  0  0
  3  1  1  0  0  0  0
  4 12  1  0  0  0  0
  5  1  2  0  0  0  0
  6  1  2  0  0  0  0
  7  3  2  0  0  0  0
  8  4  1  0  0  0  0
  9  7  1  0  0  0  0
 10  2  1  0  0  0  0
 11  2  1  0  0  0  0
 12 16  1  0  0  0  0
 13 21  2  0  0  0  0
 14  3  1  0  0  0  0
 15  4  2  0  0  0  0
 16 11  1  0  0  0  0
 17 10  1  0  0  0  0
 18 19  1  0  0  0  0
 19 14  2  0  0  0  0
 20  8  1  0  0  0  0
 21 20  1  0  0  0  0
 22 13  1  0  0  0  0
 23  9  2  0  0  0  0
 24 18  2  0  0  0  0
 25 21  1  0  0  0  0
 26 29  1  0  0  0  0
 27 23  1  0  0  0  0
 28 24  1  0  0  0  0
 29 25  2  0  0  0  0
 17 12  1  0  0  0  0
 18  9  1  0  0  0  0
 28 27  2  0  0  0  0
 22 26  2  0  0  0  0
M  END
> <#>
1498

> <PLATE>
LAT019

> <ROW>
B

> <COL>
9

> <COORD>
B09

> <LATID>
LAT019B09

> <Supplier>
Chembridge

> <Suplier_CAT#>
7993012

> <Name>
Novel

> <Concentration_(mM)>
2.5

> <IC50_(µM)>
78

> <Yeast_Active?>
-

> <Pubchem_CID>
2985293

$$$$
