
  -ISIS-  08130814242D

 25 27  0  0  0  0  0  0  0  0999 V2000
    2.0042    3.8458    0.0000 S   0  0  3  0  0  0  0  0  0  0  0  0
    2.0042    3.0958    0.0000 C   0  0  0  0  0  0  0  0  0  0  0  0
    1.2792    4.0292    0.0000 N   0  0  3  0  0  0  0  0  0  0  0  0
    1.3542    1.9708    0.0000 C   0  0  0  0  0  0  0  0  0  0  0  0
    1.3542    2.7208    0.0000 C   0  0  0  0  0  0  0  0  0  0  0  0
    0.7125    1.5958    0.0000 C   0  0  0  0  0  0  0  0  0  0  0  0
    2.7542    3.7833    0.0000 O   0  0  0  0  0  0  0  0  0  0  0  0
    2.1417    4.5792    0.0000 O   0  0  0  0  0  0  0  0  0  0  0  0
    0.0625    1.9708    0.0000 N   0  0  0  0  0  0  0  0  0  0  0  0
    2.0042    1.5958    0.0000 C   0  0  0  0  0  0  0  0  0  0  0  0
    2.6542    2.7208    0.0000 C   0  0  0  0  0  0  0  0  0  0  0  0
   -1.2375    2.7208    0.0000 N   0  0  0  0  0  0  0  0  0  0  0  0
    0.7125    0.8458    0.0000 O   0  0  0  0  0  0  0  0  0  0  0  0
    2.6542    1.9708    0.0000 C   0  0  0  0  0  0  0  0  0  0  0  0
   -0.5875    1.5958    0.0000 C   0  0  0  0  0  0  0  0  0  0  0  0
   -1.2375    1.9708    0.0000 C   0  0  0  0  0  0  0  0  0  0  0  0
    1.0167    4.7292    0.0000 C   0  0  0  0  0  0  0  0  0  0  0  0
    0.7042    3.5708    0.0000 C   0  0  0  0  0  0  0  0  0  0  0  0
   -1.8875    3.0958    0.0000 C   0  0  0  0  0  0  0  0  0  0  0  0
    2.0042    0.8458    0.0000 C   0  0  0  0  0  0  0  0  0  0  0  0
   -1.8875    1.5958    0.0000 C   0  0  0  0  0  0  0  0  0  0  0  0
    0.0750    3.9833    0.0000 C   0  0  0  0  0  0  0  0  0  0  0  0
    0.2667    4.6917    0.0000 C   0  0  0  0  0  0  0  0  0  0  0  0
   -2.5375    2.7208    0.0000 C   0  0  0  0  0  0  0  0  0  0  0  0
   -2.5375    1.9708    0.0000 C   0  0  0  0  0  0  0  0  0  0  0  0
  2  1  1  0  0  0  0
  3  1  1  0  0  0  0
  4  5  1  0  0  0  0
  5  2  2  0  0  0  0
  6  4  1  0  0  0  0
  7  1  2  0  0  0  0
  8  1  2  0  0  0  0
  9  6  1  0  0  0  0
 10 14  1  0  0  0  0
 11  2  1  0  0  0  0
 12 16  1  0  0  0  0
 13  6  2  0  0  0  0
 14 11  2  0  0  0  0
 15  9  1  0  0  0  0
 16 15  1  0  0  0  0
 17  3  1  0  0  0  0
 18  3  1  0  0  0  0
 19 12  2  0  0  0  0
 20 10  1  0  0  0  0
 21 16  2  0  0  0  0
 22 18  1  0  0  0  0
 23 17  1  0  0  0  0
 24 25  2  0  0  0  0
 25 21  1  0  0  0  0
 23 22  1  0  0  0  0
  4 10  2  0  0  0  0
 24 19  1  0  0  0  0
M  END
> <#>
1423

> <PLATE>
LAT018

> <ROW>
G

> <COL>
9

> <COORD>
G09

> <LATID>
LAT018G09

> <Supplier>
Chembridge

> <Suplier_CAT#>
9061573

> <Name>
Novel

> <Concentration_(mM)>
2.5

> <IC50_(µM)>
>100

> <Yeast_Active?>
-

> <Pubchem_CID>
6472087

$$$$
