
  -ISIS-  08130814242D

 18 19  0  0  0  0  0  0  0  0999 V2000
   -0.0333   -0.6000    0.0000 C   0  0  0  0  0  0  0  0  0  0  0  0
    1.0000   -0.0292    0.0000 C   0  0  0  0  0  0  0  0  0  0  0  0
   -1.0625   -0.0292    0.0000 C   0  0  0  0  0  0  0  0  0  0  0  0
   -2.0500   -0.6000    0.0000 C   0  0  0  0  0  0  0  0  0  0  0  0
    1.9875   -0.6000    0.0000 C   0  0  0  0  0  0  0  0  0  0  0  0
    2.9875   -0.0292    0.0000 C   0  0  0  0  0  0  0  0  0  0  0  0
   -3.0500   -0.0292    0.0000 C   0  0  0  0  0  0  0  0  0  0  0  0
   -3.0500    1.1833    0.0000 C   0  0  0  0  0  0  0  0  0  0  0  0
    2.9875    1.1208    0.0000 C   0  0  0  0  0  0  0  0  0  0  0  0
   -1.0625    1.1833    0.0000 C   0  0  0  0  0  0  0  0  0  0  0  0
    1.0000    1.1208    0.0000 C   0  0  0  0  0  0  0  0  0  0  0  0
   -0.0333   -1.7500    0.0000 O   0  0  0  0  0  0  0  0  0  0  0  0
   -2.0500    1.7500    0.0000 C   0  0  0  0  0  0  0  0  0  0  0  0
    1.9875    1.7000    0.0000 C   0  0  0  0  0  0  0  0  0  0  0  0
    3.9875   -0.6042    0.0000 N   0  0  0  0  0  0  0  0  0  0  0  0
   -4.0208   -0.6500    0.0000 N   0  0  0  0  0  0  0  0  0  0  0  0
    4.0167    1.7500    0.0000 O   0  0  0  0  0  0  0  0  0  0  0  0
   -4.0458    1.7500    0.0000 O   0  0  0  0  0  0  0  0  0  0  0  0
  2  1  1  0  0  0  0
  3  1  1  0  0  0  0
  4  3  1  0  0  0  0
  5  2  1  0  0  0  0
  6  5  2  0  0  0  0
  7  4  2  0  0  0  0
  8 13  2  0  0  0  0
  9 14  2  0  0  0  0
 10  3  2  0  0  0  0
 11  2  2  0  0  0  0
 12  1  2  0  0  0  0
 13 10  1  0  0  0  0
 14 11  1  0  0  0  0
 15  6  1  0  0  0  0
 16  7  1  0  0  0  0
 17  9  1  0  0  0  0
 18  8  1  0  0  0  0
  7  8  1  0  0  0  0
  6  9  1  0  0  0  0
M  END
> <#>
1121

> <PLATE>
LAT015

> <ROW>
A

> <COL>
2

> <COORD>
A02

> <LATID>
LAT015A02

> <Supplier>
Chembridge

> <Suplier_CAT#>
5180332

> <Name>
Novel

> <Concentration_(mM)>
2.5

> <IC50_(µM)>
>100

> <Yeast_Active?>
-

> <Pubchem_CID>
586092

$$$$
