
  -ISIS-  08130814242D

 32 36  0  0  0  0  0  0  0  0999 V2000
    5.0667   -8.5375    0.0000 S   0  0  3  0  0  0  0  0  0  0  0  0
    2.1292   -6.1792    0.0000 C   0  0  3  0  0  0  0  0  0  0  0  0
    5.0667   -7.7042    0.0000 N   0  0  3  0  0  0  0  0  0  0  0  0
    5.7875   -7.2875    0.0000 C   0  0  0  0  0  0  0  0  0  0  0  0
    6.5042   -7.7042    0.0000 C   0  0  0  0  0  0  0  0  0  0  0  0
    2.9125   -6.4625    0.0000 C   0  0  0  0  0  0  0  0  0  0  0  0
    2.1417   -5.3667    0.0000 C   0  0  0  0  0  0  0  0  0  0  0  0
    1.5917   -6.8667    0.0000 C   0  0  0  0  0  0  0  0  0  0  0  0
    1.3875   -6.3667    0.0000 C   0  0  0  0  0  0  0  0  0  0  0  0
    5.4792   -9.2542    0.0000 O   0  0  0  0  0  0  0  0  0  0  0  0
    5.8667   -8.7500    0.0000 O   0  0  0  0  0  0  0  0  0  0  0  0
    4.3500   -7.2917    0.0000 C   0  0  0  0  0  0  0  0  0  0  0  0
    0.8417   -6.5667    0.0000 C   0  0  3  0  0  0  0  0  0  0  0  0
    0.6792   -6.1042    0.0000 C   0  0  3  0  0  0  0  0  0  0  0  0
    1.3917   -5.0542    0.0000 C   0  0  3  0  0  0  0  0  0  0  0  0
    7.2250   -7.2875    0.0000 N   0  0  0  0  0  0  0  0  0  0  0  0
    9.3792   -7.6917    0.0000 N   0  0  0  0  0  0  0  0  0  0  0  0
    6.5042   -8.5292    0.0000 O   0  0  0  0  0  0  0  0  0  0  0  0
    3.6292   -6.0417    0.0000 C   0  0  0  0  0  0  0  0  0  0  0  0
    2.9125   -7.2917    0.0000 C   0  0  0  0  0  0  0  0  0  0  0  0
    3.6292   -7.7042    0.0000 C   0  0  0  0  0  0  0  0  0  0  0  0
    4.3500   -6.4542    0.0000 C   0  0  0  0  0  0  0  0  0  0  0  0
    0.0375   -6.7917    0.0000 C   0  0  0  0  0  0  0  0  0  0  0  0
    0.6667   -5.3125    0.0000 C   0  0  0  0  0  0  0  0  0  0  0  0
    0.8375   -5.7167    0.0000 C   0  0  0  0  0  0  0  0  0  0  0  0
    4.3542   -8.9500    0.0000 C   0  0  0  0  0  0  0  0  0  0  0  0
    8.6625   -7.2792    0.0000 C   0  0  0  0  0  0  0  0  0  0  0  0
    7.9417   -7.7000    0.0000 C   0  0  0  0  0  0  0  0  0  0  0  0
   10.1000   -7.2792    0.0000 C   0  0  0  0  0  0  0  0  0  0  0  0
    8.6667   -6.4542    0.0000 C   0  0  0  0  0  0  0  0  0  0  0  0
   10.1000   -6.4542    0.0000 C   0  0  0  0  0  0  0  0  0  0  0  0
    9.3792   -6.0292    0.0000 C   0  0  0  0  0  0  0  0  0  0  0  0
  2  6  1  0  0  0  0
  3  1  1  0  0  0  0
  4  3  1  0  0  0  0
  5  4  1  0  0  0  0
  6 19  1  0  0  0  0
  7  2  1  0  0  0  0
  8  2  1  0  0  0  0
  9  2  1  0  0  0  0
 10  1  2  0  0  0  0
 11  1  2  0  0  0  0
 12  3  1  0  0  0  0
 13  8  1  0  0  0  0
 14  9  1  0  0  0  0
 15  7  1  0  0  0  0
 16  5  1  0  0  0  0
 17 27  1  0  0  0  0
 18  5  2  0  0  0  0
 19 22  2  0  0  0  0
 20 21  1  0  0  0  0
 21 12  2  0  0  0  0
 22 12  1  0  0  0  0
 23 14  1  0  0  0  0
 24 14  1  0  0  0  0
 25 13  1  0  0  0  0
 26  1  1  0  0  0  0
 27 28  1  0  0  0  0
 28 16  1  0  0  0  0
 29 17  2  0  0  0  0
 30 27  2  0  0  0  0
 31 32  2  0  0  0  0
 32 30  1  0  0  0  0
 20  6  2  0  0  0  0
 24 15  1  0  0  0  0
 23 13  1  0  0  0  0
 25 15  1  0  0  0  0
 29 31  1  0  0  0  0
M  END
> <#>
1580

> <PLATE>
LAT020

> <ROW>
D

> <COL>
9

> <COORD>
D09

> <LATID>
LAT020D09

> <Supplier>
Chembridge

> <Suplier_CAT#>
7961880

> <Name>
Novel

> <Concentration_(mM)>
2.5

> <IC50_(µM)>
inactive

> <Yeast_Active?>
-

> <Pubchem_CID>
2975109

$$$$
