
  -ISIS-  08130814242D

 12 12  0  0  0  0  0  0  0  0999 V2000
    4.3878   -3.7892    0.0000 C   0  0  0  0  0  0  0  0  0  0  0  0
    3.7628   -2.7067    0.0000 C   0  0  0  0  0  0  0  0  0  0  0  0
    3.7628   -4.8717    0.0000 O   0  0  0  0  0  0  0  0  0  0  0  0
    5.6378   -3.7892    0.0000 C   0  0  0  0  0  0  0  0  0  0  0  0
    6.2628   -2.7066    0.0000 C   0  0  0  0  0  0  0  0  0  0  0  0
    7.5128   -2.7066    0.0000 C   0  0  0  0  0  0  0  0  0  0  0  0
    8.1378   -3.7892    0.0000 C   0  0  0  0  0  0  0  0  0  0  0  0
    7.5128   -4.8717    0.0000 C   0  0  0  0  0  0  0  0  0  0  0  0
    6.2628   -4.8717    0.0000 C   0  0  0  0  0  0  0  0  0  0  0  0
    9.3878   -3.7892    0.0000 O   0  0  0  0  0  0  0  0  0  0  0  0
    8.1378   -1.6241    0.0000 O   0  0  0  0  0  0  0  0  0  0  0  0
    5.6378   -1.6241    0.0000 O   0  0  0  0  0  0  0  0  0  0  0  0
  1  2  1  0  0  0  0
  4  5  1  0  0  0  0
  5  6  2  0  0  0  0
  6  7  1  0  0  0  0
  7  8  2  0  0  0  0
  8  9  1  0  0  0  0
  4  9  2  0  0  0  0
  1  3  2  0  0  0  0
  1  4  1  0  0  0  0
  7 10  1  0  0  0  0
  6 11  1  0  0  0  0
  5 12  1  0  0  0  0
M  END
> <#>
343

> <PLATE>
LAT005

> <ROW>
G

> <COL>
4

> <COORD>
G04

> <LATID>
LAT005G04

> <Supplier>
Aldrich

> <Suplier_CAT#>
T64408

> <Name>
2',3',4'-Trihydroxyacetophenone

> <Concentration_(mM)>
2.5

> <IC50_(µM)>
inactive

> <Yeast_Active?>
-

> <Pubchem_CID>
10706

$$$$
