
  -ISIS-  08130814242D

 25 26  0  0  0  0  0  0  0  0999 V2000
    1.7417    1.4208    0.0000 C   0  0  0  0  0  0  0  0  0  0  0  0
   -4.7458    1.4208    0.0000 N   0  0  0  0  0  0  0  0  0  0  0  0
    2.3917    1.0458    0.0000 C   0  0  0  0  0  0  0  0  0  0  0  0
    1.1000    1.0458    0.0000 C   0  0  0  0  0  0  0  0  0  0  0  0
    0.4500    1.4208    0.0000 O   0  0  0  0  0  0  0  0  0  0  0  0
   -2.8000    1.0458    0.0000 N   0  0  0  0  0  0  0  0  0  0  0  0
   -4.1000    1.0458    0.0000 C   0  0  0  0  0  0  0  0  0  0  0  0
   -0.2000    1.0458    0.0000 C   0  0  0  0  0  0  0  0  0  0  0  0
    2.3917    0.2958    0.0000 F   0  0  0  0  0  0  0  0  0  0  0  0
   -0.8500    1.4208    0.0000 C   0  0  0  0  0  0  0  0  0  0  0  0
   -1.5000    1.0458    0.0000 C   0  0  0  0  0  0  0  0  0  0  0  0
   -3.4500    1.4208    0.0000 C   0  0  0  0  0  0  0  0  0  0  0  0
   -2.1500    1.4208    0.0000 C   0  0  0  0  0  0  0  0  0  0  0  0
   -0.8500   -0.0792    0.0000 C   0  0  0  0  0  0  0  0  0  0  0  0
    1.7417    2.1708    0.0000 C   0  0  0  0  0  0  0  0  0  0  0  0
   -5.3958    1.0458    0.0000 C   0  0  0  0  0  0  0  0  0  0  0  0
    3.0417    1.4208    0.0000 C   0  0  0  0  0  0  0  0  0  0  0  0
   -0.2000    0.2958    0.0000 C   0  0  0  0  0  0  0  0  0  0  0  0
   -1.5000    0.2958    0.0000 C   0  0  0  0  0  0  0  0  0  0  0  0
   -4.1000    0.2958    0.0000 C   0  0  0  0  0  0  0  0  0  0  0  0
   -5.3958    0.2958    0.0000 C   0  0  0  0  0  0  0  0  0  0  0  0
    2.3917    2.5458    0.0000 C   0  0  0  0  0  0  0  0  0  0  0  0
    3.0417    2.1708    0.0000 C   0  0  0  0  0  0  0  0  0  0  0  0
   -4.7458   -0.0792    0.0000 C   0  0  0  0  0  0  0  0  0  0  0  0
   -0.9458   -0.8417    0.0000 Cl  0  0  0  0  0  0  0  0  0  0  0  0
  2  7  2  0  0  0  0
  3  1  1  0  0  0  0
  4  1  1  0  0  0  0
  5  4  1  0  0  0  0
  6 13  1  0  0  0  0
  7 12  1  0  0  0  0
  8  5  1  0  0  0  0
  9  3  1  0  0  0  0
 10  8  2  0  0  0  0
 11 10  1  0  0  0  0
 12  6  1  0  0  0  0
 13 11  1  0  0  0  0
 14 18  2  0  0  0  0
 15  1  2  0  0  0  0
 16  2  1  0  0  0  0
 17  3  2  0  0  0  0
 18  8  1  0  0  0  0
 19 14  1  0  0  0  0
 20  7  1  0  0  0  0
 21 24  1  0  0  0  0
 22 15  1  0  0  0  0
 23 22  2  0  0  0  0
 24 20  2  0  0  0  0
 23 17  1  0  0  0  0
 19 11  2  0  0  0  0
 16 21  2  0  0  0  0
M  END
> <#>
1584

> <PLATE>
LAT020

> <ROW>
H

> <COL>
9

> <COORD>
H09

> <LATID>
LAT020H09

> <Supplier>
Chembridge

> <Suplier_CAT#>
7965736

> <Name>
Novel

> <Concentration_(mM)>
2.5

> <IC50_(µM)>
inactive

> <Yeast_Active?>
-

> <Pubchem_CID>
834670

$$$$
