
  -ISIS-  08130814242D

 27 30  0  0  0  0  0  0  0  0999 V2000
   -2.7833    1.1458    0.0000 N   0  0  3  0  0  0  0  0  0  0  0  0
   -4.2708    3.2708    0.0000 C   0  0  0  0  0  0  0  0  0  0  0  0
   -4.2708   -0.9042    0.0000 C   0  0  0  0  0  0  0  0  0  0  0  0
   -6.7500    2.4958    0.0000 C   0  0  0  0  0  0  0  0  0  0  0  0
   -6.7500   -0.1292    0.0000 C   0  0  0  0  0  0  0  0  0  0  0  0
   -0.1625    1.3125    0.0000 C   0  0  0  0  0  0  0  0  0  0  0  0
    5.3667   -2.9042    0.0000 C   0  0  0  0  0  0  0  0  0  0  0  0
    1.2667   -0.8792    0.0000 C   0  0  0  0  0  0  0  0  0  0  0  0
    3.9000   -0.7167    0.0000 C   0  0  0  0  0  0  0  0  0  0  0  0
   -9.0042   -1.4375    0.0000 C   0  0  0  0  0  0  0  0  0  0  0  0
   -3.3708    5.7667    0.0000 O   0  0  0  0  0  0  0  0  0  0  0  0
   -3.3708   -3.4042    0.0000 O   0  0  0  0  0  0  0  0  0  0  0  0
   -9.0042    3.8000    0.0000 C   0  0  0  0  0  0  0  0  0  0  0  0
  -11.3042    2.4958    0.0000 C   0  0  0  0  0  0  0  0  0  0  0  0
    8.0000   -2.7500    0.0000 O   0  0  0  0  0  0  0  0  0  0  0  0
  -13.6292    3.8333    0.0000 O   0  0  0  0  0  0  0  0  0  0  0  0
  -11.3042   -0.1292    0.0000 C   0  0  0  0  0  0  0  0  0  0  0  0
    4.1875   -5.2375    0.0000 O   0  0  0  0  0  0  0  0  0  0  0  0
    1.0042    3.6333    0.0000 C   0  0  0  0  0  0  0  0  0  0  0  0
  -13.6667    6.4500    0.0000 C   0  0  0  0  0  0  0  0  0  0  0  0
    5.0792    1.6000    0.0000 C   0  0  0  0  0  0  0  0  0  0  0  0
    3.6292    3.8000    0.0000 C   0  0  0  0  0  0  0  0  0  0  0  0
  -15.9542    7.7667    0.0000 C   0  0  0  0  0  0  0  0  0  0  0  0
  -11.4042    7.7667    0.0000 C   0  0  0  0  0  0  0  0  0  0  0  0
  -16.0000   10.3792    0.0000 C   0  0  0  0  0  0  0  0  0  0  0  0
  -11.4042   10.3792    0.0000 C   0  0  0  0  0  0  0  0  0  0  0  0
  -13.6667   11.6917    0.0000 C   0  0  0  0  0  0  0  0  0  0  0  0
  2  1  1  0  0  0  0
  3  1  1  0  0  0  0
  4  2  1  0  0  0  0
  5  3  1  0  0  0  0
  6  1  1  0  0  0  0
  7  9  1  0  0  0  0
  8  6  1  0  0  0  0
  9  8  2  0  0  0  0
 10  5  1  0  0  0  0
 11  2  2  0  0  0  0
 12  3  2  0  0  0  0
 13  4  1  0  0  0  0
 14 13  2  0  0  0  0
 15  7  2  0  0  0  0
 16 14  1  0  0  0  0
 17 10  2  0  0  0  0
 18  7  1  0  0  0  0
 19  6  2  0  0  0  0
 20 16  1  0  0  0  0
 21 22  2  0  0  0  0
 22 19  1  0  0  0  0
 23 20  1  0  0  0  0
 24 20  2  0  0  0  0
 25 23  2  0  0  0  0
 26 24  1  0  0  0  0
 27 26  2  0  0  0  0
  5  4  2  0  0  0  0
 21  9  1  0  0  0  0
 14 17  1  0  0  0  0
 25 27  1  0  0  0  0
M  END
> <#>
1766

> <PLATE>
LAT023

> <ROW>
F

> <COL>
2

> <COORD>
F02

> <LATID>
LAT023F02

> <Supplier>
Chembridge

> <Suplier_CAT#>
5523773

> <Name>
Novel

> <Sec_Name>
148_E02

> <Concentration_(mM)>
2.5

> <IC50_(µM)>
23

> <Yeast_Active?>
-

> <Pubchem_CID>
NULL

$$$$
