
  -ISIS-  08130814242D

 20 21  0  0  0  0  0  0  0  0999 V2000
   -1.6458   -0.7792    0.0000 N   0  0  3  0  0  0  0  0  0  0  0  0
   -1.6458   -0.2167    0.0000 C   0  0  0  0  0  0  0  0  0  0  0  0
   -2.1208   -1.0375    0.0000 C   0  0  0  0  0  0  0  0  0  0  0  0
   -2.1208    0.0625    0.0000 N   0  0  0  0  0  0  0  0  0  0  0  0
   -2.5833   -0.7792    0.0000 C   0  0  0  0  0  0  0  0  0  0  0  0
   -2.5833   -0.2167    0.0000 C   0  0  0  0  0  0  0  0  0  0  0  0
   -1.1625    0.0625    0.0000 S   0  0  0  0  0  0  0  0  0  0  0  0
   -2.1208   -1.6000    0.0000 O   0  0  0  0  0  0  0  0  0  0  0  0
   -0.6833    0.8833    0.0000 C   0  0  0  0  0  0  0  0  0  0  0  0
   -0.2208    0.6208    0.0000 O   0  0  0  0  0  0  0  0  0  0  0  0
   -1.1833   -1.0542    0.0000 C   0  0  0  0  0  0  0  0  0  0  0  0
   -1.1625    0.6208    0.0000 C   0  0  0  0  0  0  0  0  0  0  0  0
   -3.0625   -1.0375    0.0000 C   0  0  0  0  0  0  0  0  0  0  0  0
   -0.6833    1.4458    0.0000 O   0  0  0  0  0  0  0  0  0  0  0  0
   -3.0625    0.0625    0.0000 C   0  0  0  0  0  0  0  0  0  0  0  0
   -0.2208    1.7000    0.0000 C   0  0  0  0  0  0  0  0  0  0  0  0
   -0.7125   -0.8042    0.0000 C   0  0  0  0  0  0  0  0  0  0  0  0
   -3.5458   -0.7792    0.0000 C   0  0  0  0  0  0  0  0  0  0  0  0
   -3.5458   -0.2167    0.0000 C   0  0  0  0  0  0  0  0  0  0  0  0
   -0.2208    2.2708    0.0000 C   0  0  0  0  0  0  0  0  0  0  0  0
  2  1  1  0  0  0  0
  3  1  1  0  0  0  0
  4  2  2  0  0  0  0
  5  3  1  0  0  0  0
  6  5  2  0  0  0  0
  7  2  1  0  0  0  0
  8  3  2  0  0  0  0
  9 12  1  0  0  0  0
 10  9  2  0  0  0  0
 11  1  1  0  0  0  0
 12  7  1  0  0  0  0
 13  5  1  0  0  0  0
 14  9  1  0  0  0  0
 15  6  1  0  0  0  0
 16 14  1  0  0  0  0
 17 11  1  0  0  0  0
 18 13  2  0  0  0  0
 19 18  1  0  0  0  0
 20 16  1  0  0  0  0
  4  6  1  0  0  0  0
 19 15  2  0  0  0  0
M  END
> <#>
942

> <PLATE>
LAT012

> <ROW>
F

> <COL>
9

> <COORD>
F09

> <LATID>
LAT012F09

> <Supplier>
Chembridge

> <Suplier_CAT#>
5727982

> <Name>
Novel

> <Sec_Name>
230_H07

> <Concentration_(mM)>
2.5

> <IC50_(µM)>
100

> <Yeast_Active?>
-

> <Pubchem_CID>
791483

$$$$
