
  -ISIS-  08130814242D

 25 27  0  0  0  0  0  0  0  0999 V2000
    3.6792   -1.7917    0.0000 N   0  0  3  0  0  0  0  0  0  0  0  0
    4.1167   -2.4042    0.0000 C   0  0  0  0  0  0  0  0  0  0  0  0
    3.6792   -3.0000    0.0000 C   0  0  0  0  0  0  0  0  0  0  0  0
    2.9667   -2.0167    0.0000 C   0  0  0  0  0  0  0  0  0  0  0  0
    2.9667   -2.7667    0.0000 C   0  0  0  0  0  0  0  0  0  0  0  0
    3.9167   -1.0667    0.0000 C   0  0  0  0  0  0  0  0  0  0  0  0
    3.9167   -3.7167    0.0000 C   0  0  0  0  0  0  0  0  0  0  0  0
    2.3167   -1.6417    0.0000 C   0  0  0  0  0  0  0  0  0  0  0  0
    4.6542   -0.9125    0.0000 C   0  0  0  0  0  0  0  0  0  0  0  0
    4.6542   -3.8792    0.0000 C   0  0  0  0  0  0  0  0  0  0  0  0
    2.3167   -3.1417    0.0000 C   0  0  0  0  0  0  0  0  0  0  0  0
    3.4167   -0.5125    0.0000 O   0  0  0  0  0  0  0  0  0  0  0  0
    4.8875   -4.5917    0.0000 O   0  0  0  0  0  0  0  0  0  0  0  0
    5.1542   -1.4667    0.0000 C   0  0  0  0  0  0  0  0  0  0  0  0
    4.8875   -0.2042    0.0000 C   0  0  0  0  0  0  0  0  0  0  0  0
    4.8667   -2.4167    0.0000 C   0  0  0  0  0  0  0  0  0  0  0  0
    1.6750   -2.7667    0.0000 C   0  0  0  0  0  0  0  0  0  0  0  0
    1.6750   -2.0167    0.0000 C   0  0  0  0  0  0  0  0  0  0  0  0
    6.1250   -0.6125    0.0000 C   0  0  0  0  0  0  0  0  0  0  0  0
    5.1542   -3.3167    0.0000 O   0  0  0  0  0  0  0  0  0  0  0  0
    5.8875   -1.3167    0.0000 C   0  0  0  0  0  0  0  0  0  0  0  0
    5.6167   -0.0417    0.0000 C   0  0  0  0  0  0  0  0  0  0  0  0
    6.8667   -0.4667    0.0000 Cl  0  0  0  0  0  0  0  0  0  0  0  0
    1.0167   -3.1500    0.0000 O   0  0  0  0  0  0  0  0  0  0  0  0
    0.3667   -2.7750    0.0000 C   0  0  0  0  0  0  0  0  0  0  0  0
  2  1  1  0  0  0  0
  3  2  2  0  0  0  0
  4  1  1  0  0  0  0
  5  4  2  0  0  0  0
  6  1  1  0  0  0  0
  7  3  1  0  0  0  0
  8  4  1  0  0  0  0
  9  6  1  0  0  0  0
 10  7  1  0  0  0  0
 11  5  1  0  0  0  0
 12  6  2  0  0  0  0
 13 10  2  0  0  0  0
 14  9  2  0  0  0  0
 15  9  1  0  0  0  0
 16  2  1  0  0  0  0
 17 18  1  0  0  0  0
 18  8  2  0  0  0  0
 19 22  1  0  0  0  0
 20 10  1  0  0  0  0
 21 14  1  0  0  0  0
 22 15  2  0  0  0  0
 23 19  1  0  0  0  0
 24 17  1  0  0  0  0
 25 24  1  0  0  0  0
  5  3  1  0  0  0  0
 21 19  2  0  0  0  0
 11 17  2  0  0  0  0
M  END
> <#>
64

> <PLATE>
LAT001

> <ROW>
H

> <COL>
9

> <COORD>
H09

> <LATID>
LAT001H09

> <Supplier>
Microsource

> <Suplier_CAT#>
01500350

> <Name>
Indomethacin

> <Concentration_(mM)>
2.5

> <IC50_(µM)>
25

> <Yeast_Active?>
-

> <Pubchem_CID>
3715

> <Description>
Antiinflammatory, Antipyretic, Analgesic

$$$$
