
  -ISIS-  08130814242D

 26 26  0  0  0  0  0  0  0  0999 V2000
    2.9542    2.4833    0.0000 C   0  0  0  0  0  0  0  0  0  0  0  0
    2.2125    2.4083    0.0000 N   0  0  3  0  0  0  0  0  0  0  0  0
    3.2625    1.7958    0.0000 N   0  0  0  0  0  0  0  0  0  0  0  0
    2.0542    1.6708    0.0000 C   0  0  0  0  0  0  0  0  0  0  0  0
    2.7042    1.2958    0.0000 C   0  0  0  0  0  0  0  0  0  0  0  0
    3.3292    3.1333    0.0000 N   0  0  0  0  0  0  0  0  0  0  0  0
    1.7125    2.9625    0.0000 C   0  0  0  0  0  0  0  0  0  0  0  0
    5.2042    3.7833    0.0000 N   0  0  0  0  0  0  0  0  0  0  0  0
    0.9750    2.8083    0.0000 C   0  0  0  0  0  0  0  0  0  0  0  0
    4.0792    3.1333    0.0000 C   0  0  0  0  0  0  0  0  0  0  0  0
    4.4542    3.7833    0.0000 C   0  0  0  0  0  0  0  0  0  0  0  0
    0.4750    3.3625    0.0000 N   0  0  3  0  0  0  0  0  0  0  0  0
    1.4042    1.2958    0.0000 C   0  0  0  0  0  0  0  0  0  0  0  0
    2.7042    0.5458    0.0000 C   0  0  0  0  0  0  0  0  0  0  0  0
    5.5792    4.4292    0.0000 C   0  0  0  0  0  0  0  0  0  0  0  0
   -0.2583    3.2083    0.0000 C   0  0  0  0  0  0  0  0  0  0  0  0
    0.7042    4.0667    0.0000 C   0  0  0  0  0  0  0  0  0  0  0  0
    4.0792    4.4292    0.0000 C   0  0  0  0  0  0  0  0  0  0  0  0
    1.4042    0.5458    0.0000 C   0  0  0  0  0  0  0  0  0  0  0  0
    0.2042    4.6292    0.0000 C   0  0  0  0  0  0  0  0  0  0  0  0
   -0.7583    3.7708    0.0000 C   0  0  0  0  0  0  0  0  0  0  0  0
    2.0542    0.1708    0.0000 C   0  0  0  0  0  0  0  0  0  0  0  0
    5.2042    5.0750    0.0000 C   0  0  0  0  0  0  0  0  0  0  0  0
    4.4542    5.0750    0.0000 C   0  0  0  0  0  0  0  0  0  0  0  0
    6.3292    0.1708    0.0000 Cl  0  0  0  0  0  0  0  0  0  0  0  0
    7.0792    0.1708    0.0000 Cl  0  0  0  0  0  0  0  0  0  0  0  0
  2  1  1  0  0  0  0
  3  1  2  0  0  0  0
  4  2  1  0  0  0  0
  5  3  1  0  0  0  0
  6  1  1  0  0  0  0
  7  2  1  0  0  0  0
  8 11  1  0  0  0  0
  9  7  1  0  0  0  0
 10  6  1  0  0  0  0
 11 10  1  0  0  0  0
 12  9  1  0  0  0  0
 13  4  1  0  0  0  0
 14  5  1  0  0  0  0
 15  8  2  0  0  0  0
 16 12  1  0  0  0  0
 17 12  1  0  0  0  0
 18 11  2  0  0  0  0
 19 13  2  0  0  0  0
 20 17  1  0  0  0  0
 21 16  1  0  0  0  0
 22 14  2  0  0  0  0
 23 24  2  0  0  0  0
 24 18  1  0  0  0  0
  4  5  2  0  0  0  0
 22 19  1  0  0  0  0
 15 23  1  0  0  0  0
M  END
> <#>
1480

> <PLATE>
LAT019

> <ROW>
H

> <COL>
6

> <COORD>
H06

> <LATID>
LAT019H06

> <Supplier>
Chembridge

> <Suplier_CAT#>
7954918

> <Name>
Novel

> <Concentration_(mM)>
2.5

> <IC50_(µM)>
inactive

> <Yeast_Active?>
-

> <Pubchem_CID>
1249670

$$$$
