
  -ISIS-  08130814242D

 30 33  0  0  0  0  0  0  0  0999 V2000
    5.1417   -3.8292    0.0000 N   0  0  3  0  0  0  0  0  0  0  0  0
    5.9292   -4.0875    0.0000 C   0  0  0  0  0  0  0  0  0  0  0  0
    5.9292   -4.9125    0.0000 N   0  0  0  0  0  0  0  0  0  0  0  0
    4.6625   -4.5042    0.0000 C   0  0  0  0  0  0  0  0  0  0  0  0
    5.1417   -5.1667    0.0000 N   0  0  0  0  0  0  0  0  0  0  0  0
    3.8375   -4.5042    0.0000 S   0  0  0  0  0  0  0  0  0  0  0  0
    6.5917   -3.6042    0.0000 C   0  0  0  0  0  0  0  0  0  0  0  0
    4.8917   -3.0500    0.0000 C   0  0  0  0  0  0  0  0  0  0  0  0
    2.6042   -5.2167    0.0000 C   0  0  0  0  0  0  0  0  0  0  0  0
    2.1917   -5.9292    0.0000 N   0  0  0  0  0  0  0  0  0  0  0  0
    2.1917   -4.5042    0.0000 O   0  0  0  0  0  0  0  0  0  0  0  0
    3.4250   -5.2167    0.0000 C   0  0  0  0  0  0  0  0  0  0  0  0
    6.5042   -2.7875    0.0000 C   0  0  0  0  0  0  0  0  0  0  0  0
    7.3500   -3.9417    0.0000 C   0  0  0  0  0  0  0  0  0  0  0  0
    7.9292   -2.6375    0.0000 C   0  0  0  0  0  0  0  0  0  0  0  0
    1.3792   -5.9375    0.0000 C   0  0  0  0  0  0  0  0  0  0  0  0
    7.1667   -2.3000    0.0000 C   0  0  0  0  0  0  0  0  0  0  0  0
    8.0167   -3.4542    0.0000 C   0  0  0  0  0  0  0  0  0  0  0  0
    8.6000   -2.1500    0.0000 Cl  0  0  0  0  0  0  0  0  0  0  0  0
    0.9792   -6.6417    0.0000 C   0  0  0  0  0  0  0  0  0  0  0  0
    4.0875   -2.8792    0.0000 C   0  0  0  0  0  0  0  0  0  0  0  0
    5.4417   -2.4417    0.0000 C   0  0  0  0  0  0  0  0  0  0  0  0
    0.1625   -6.6375    0.0000 C   0  0  0  0  0  0  0  0  0  0  0  0
    1.3792   -7.3417    0.0000 C   0  0  0  0  0  0  0  0  0  0  0  0
    5.1917   -1.6542    0.0000 C   0  0  0  0  0  0  0  0  0  0  0  0
    3.8292   -2.1042    0.0000 C   0  0  0  0  0  0  0  0  0  0  0  0
    0.9667   -8.0417    0.0000 C   0  0  0  0  0  0  0  0  0  0  0  0
   -0.2458   -7.3375    0.0000 C   0  0  0  0  0  0  0  0  0  0  0  0
    4.3792   -1.4792    0.0000 C   0  0  0  0  0  0  0  0  0  0  0  0
    0.1625   -8.0417    0.0000 C   0  0  0  0  0  0  0  0  0  0  0  0
  2  1  1  0  0  0  0
  3  2  2  0  0  0  0
  4  1  1  0  0  0  0
  5  4  2  0  0  0  0
  6  4  1  0  0  0  0
  7  2  1  0  0  0  0
  8  1  1  0  0  0  0
  9 12  1  0  0  0  0
 10  9  1  0  0  0  0
 11  9  2  0  0  0  0
 12  6  1  0  0  0  0
 13  7  1  0  0  0  0
 14  7  2  0  0  0  0
 15 18  2  0  0  0  0
 16 10  1  0  0  0  0
 17 13  2  0  0  0  0
 18 14  1  0  0  0  0
 19 15  1  0  0  0  0
 20 16  1  0  0  0  0
 21  8  1  0  0  0  0
 22  8  2  0  0  0  0
 23 20  2  0  0  0  0
 24 20  1  0  0  0  0
 25 22  1  0  0  0  0
 26 21  2  0  0  0  0
 27 24  2  0  0  0  0
 28 23  1  0  0  0  0
 29 25  2  0  0  0  0
 30 27  1  0  0  0  0
  3  5  1  0  0  0  0
 29 26  1  0  0  0  0
 17 15  1  0  0  0  0
 28 30  2  0  0  0  0
M  END
> <#>
1732

> <PLATE>
LAT022

> <ROW>
D

> <COL>
8

> <COORD>
D08

> <LATID>
LAT022D08

> <Supplier>
Chembridge

> <Suplier_CAT#>
7607937

> <Name>
Novel

> <Concentration_(mM)>
2.5

> <IC50_(µM)>
inactive

> <Yeast_Active?>
-

> <Pubchem_CID>
1316202

$$$$
