
  -ISIS-  08130814242D

 17 18  0  0  0  0  0  0  0  0999 V2000
   -0.5458    0.0000    0.0000 C   0  0  0  0  0  0  0  0  0  0  0  0
    0.2792   -0.4667    0.0000 C   0  0  0  0  0  0  0  0  0  0  0  0
   -1.3625   -0.4792    0.0000 N   0  0  0  0  0  0  0  0  0  0  0  0
   -2.1833    0.0000    0.0000 C   0  0  0  0  0  0  0  0  0  0  0  0
   -3.0000   -0.4792    0.0000 N   0  0  0  0  0  0  0  0  0  0  0  0
   -0.5458    0.9458    0.0000 O   0  0  0  0  0  0  0  0  0  0  0  0
    1.0875    0.0000    0.0000 C   0  0  0  0  0  0  0  0  0  0  0  0
    0.2792   -1.4042    0.0000 C   0  0  0  0  0  0  0  0  0  0  0  0
    1.0875    0.9500    0.0000 O   0  0  0  0  0  0  0  0  0  0  0  0
   -3.8208    0.0000    0.0000 C   0  0  0  0  0  0  0  0  0  0  0  0
   -2.1833    0.9625    0.0000 C   0  0  0  0  0  0  0  0  0  0  0  0
    1.9042   -0.4667    0.0000 C   0  0  0  0  0  0  0  0  0  0  0  0
    0.2667    1.4125    0.0000 C   0  0  0  0  0  0  0  0  0  0  0  0
    1.0875   -1.9042    0.0000 C   0  0  0  0  0  0  0  0  0  0  0  0
   -3.8208    0.9625    0.0000 C   0  0  0  0  0  0  0  0  0  0  0  0
   -3.0000    1.4208    0.0000 C   0  0  0  0  0  0  0  0  0  0  0  0
    1.9042   -1.4042    0.0000 C   0  0  0  0  0  0  0  0  0  0  0  0
  2  1  1  0  0  0  0
  3  1  1  0  0  0  0
  4  3  1  0  0  0  0
  5  4  1  0  0  0  0
  6  1  2  0  0  0  0
  7  2  2  0  0  0  0
  8  2  1  0  0  0  0
  9  7  1  0  0  0  0
 10  5  2  0  0  0  0
 11  4  2  0  0  0  0
 12  7  1  0  0  0  0
 13  9  1  0  0  0  0
 14  8  2  0  0  0  0
 15 16  2  0  0  0  0
 16 11  1  0  0  0  0
 17 14  1  0  0  0  0
 17 12  2  0  0  0  0
 15 10  1  0  0  0  0
M  END
> <#>
1100

> <PLATE>
LAT014

> <ROW>
D

> <COL>
9

> <COORD>
D09

> <LATID>
LAT014D09

> <Supplier>
Chembridge

> <Suplier_CAT#>
5309556

> <Name>
Novel

> <Concentration_(mM)>
2.5

> <IC50_(µM)>
>100

> <Yeast_Active?>
-

> <Pubchem_CID>
689500

$$$$
