
  -ISIS-  08130814242D

 29 32  0  0  0  0  0  0  0  0999 V2000
    0.2792    0.7208    0.0000 C   0  0  0  0  0  0  0  0  0  0  0  0
   -1.3500    0.7208    0.0000 C   0  0  0  0  0  0  0  0  0  0  0  0
    0.2792   -0.2292    0.0000 C   0  0  0  0  0  0  0  0  0  0  0  0
   -1.3500   -0.2292    0.0000 C   0  0  0  0  0  0  0  0  0  0  0  0
   -0.5500    1.1958    0.0000 C   0  0  3  0  0  0  0  0  0  0  0  0
   -0.5500   -0.7000    0.0000 N   0  0  0  0  0  0  0  0  0  0  0  0
    1.0875    1.1958    0.0000 C   0  0  0  0  0  0  0  0  0  0  0  0
   -2.1625    1.1958    0.0000 C   0  0  0  0  0  0  0  0  0  0  0  0
   -0.6208    4.8875    0.0000 N   0  3  0  0  0  0  0  0  0  0  0  0
    1.0875   -0.7000    0.0000 C   0  0  0  0  0  0  0  0  0  0  0  0
   -2.1625   -0.7000    0.0000 C   0  0  0  0  0  0  0  0  0  0  0  0
   -2.9625   -0.2292    0.0000 C   0  0  3  0  0  0  0  0  0  0  0  0
    1.8875   -0.2292    0.0000 C   0  0  3  0  0  0  0  0  0  0  0  0
   -0.6208    3.9708    0.0000 C   0  0  0  0  0  0  0  0  0  0  0  0
    1.8875    0.7208    0.0000 C   0  0  0  0  0  0  0  0  0  0  0  0
   -2.9625    0.7208    0.0000 C   0  0  0  0  0  0  0  0  0  0  0  0
   -0.5708    2.1125    0.0000 C   0  0  0  0  0  0  0  0  0  0  0  0
    0.1292    5.4292    0.0000 O   0  5  0  0  0  0  0  0  0  0  0  0
   -1.3833    5.3875    0.0000 O   0  0  0  0  0  0  0  0  0  0  0  0
    1.0875    2.1125    0.0000 O   0  0  0  0  0  0  0  0  0  0  0  0
   -2.1625    2.1125    0.0000 O   0  0  0  0  0  0  0  0  0  0  0  0
   -1.4125    3.4708    0.0000 C   0  0  0  0  0  0  0  0  0  0  0  0
    0.1792    3.5208    0.0000 C   0  0  0  0  0  0  0  0  0  0  0  0
    0.2042    2.5958    0.0000 C   0  0  0  0  0  0  0  0  0  0  0  0
   -1.3833    2.5458    0.0000 C   0  0  0  0  0  0  0  0  0  0  0  0
    2.9167   -0.2500    0.0000 C   0  0  0  0  0  0  0  0  0  0  0  0
   -2.9625   -1.0667    0.0000 C   0  0  0  0  0  0  0  0  0  0  0  0
   -3.8125   -0.2292    0.0000 C   0  0  0  0  0  0  0  0  0  0  0  0
    1.9542   -1.0875    0.0000 C   0  0  0  0  0  0  0  0  0  0  0  0
  2  5  1  0  0  0  0
  3  1  2  0  0  0  0
  4  2  2  0  0  0  0
  5  1  1  0  0  0  0
  6  3  1  0  0  0  0
  7  1  1  0  0  0  0
  8  2  1  0  0  0  0
  9 14  1  0  0  0  0
 10  3  1  0  0  0  0
 11  4  1  0  0  0  0
 12 16  1  0  0  0  0
 13 15  1  0  0  0  0
 14 22  2  0  0  0  0
 15  7  1  0  0  0  0
 16  8  1  0  0  0  0
 17  5  1  0  0  0  0
 18  9  1  0  0  0  0
 19  9  2  0  0  0  0
 20  7  2  0  0  0  0
 21  8  2  0  0  0  0
 22 25  1  0  0  0  0
 23 24  2  0  0  0  0
 24 17  1  0  0  0  0
 25 17  2  0  0  0  0
 26 13  1  0  0  0  0
 27 12  1  0  0  0  0
 28 12  1  0  0  0  0
 29 13  1  0  0  0  0
  4  6  1  0  0  0  0
 10 13  1  0  0  0  0
 23 14  1  0  0  0  0
 11 12  1  0  0  0  0
M  CHG  2   9   1  18  -1
M  END
> <#>
1107

> <PLATE>
LAT014

> <ROW>
C

> <COL>
10

> <COORD>
C10

> <LATID>
LAT014C10

> <Supplier>
Chembridge

> <Suplier_CAT#>
5217729

> <Name>
Novel

> <Concentration_(mM)>
2.5

> <IC50_(µM)>
38

> <Yeast_Active?>
-

> <Pubchem_CID>
376365

$$$$
