
  -ISIS-  08130814242D

 15 16  0  0  0  0  0  0  0  0999 V2000
    8.2031   -3.2781    0.0000 C   0  0  0  0  0  0  0  0  0  0  0  0
    9.2857   -3.9031    0.0000 C   0  0  0  0  0  0  0  0  0  0  0  0
   10.3682   -3.2781    0.0000 C   0  0  0  0  0  0  0  0  0  0  0  0
   11.4507   -3.9031    0.0000 C   0  0  0  0  0  0  0  0  0  0  0  0
   11.4507   -5.1531    0.0000 C   0  0  0  0  0  0  0  0  0  0  0  0
   10.3682   -5.7781    0.0000 C   0  0  0  0  0  0  0  0  0  0  0  0
    9.2857   -5.1531    0.0000 C   0  0  0  0  0  0  0  0  0  0  0  0
    8.2031   -2.0281    0.0000 O   0  0  0  0  0  0  0  0  0  0  0  0
    7.1206   -3.9031    0.0000 C   0  0  0  0  0  0  0  0  0  0  0  0
    7.1206   -5.1531    0.0000 C   0  0  0  0  0  0  0  0  0  0  0  0
    6.0381   -5.7781    0.0000 C   0  0  0  0  0  0  0  0  0  0  0  0
    4.9555   -5.1531    0.0000 C   0  0  0  0  0  0  0  0  0  0  0  0
    4.9555   -3.9031    0.0000 C   0  0  0  0  0  0  0  0  0  0  0  0
    6.0381   -3.2781    0.0000 C   0  0  0  0  0  0  0  0  0  0  0  0
   10.3682   -2.0281    0.0000 O   0  0  0  0  0  0  0  0  0  0  0  0
  1  2  1  0  0  0  0
  2  3  1  0  0  0  0
  3  4  2  0  0  0  0
  4  5  1  0  0  0  0
  5  6  2  0  0  0  0
  6  7  1  0  0  0  0
  2  7  2  0  0  0  0
  9 10  1  0  0  0  0
 10 11  2  0  0  0  0
 11 12  1  0  0  0  0
 12 13  2  0  0  0  0
 13 14  1  0  0  0  0
  9 14  2  0  0  0  0
  1  8  2  0  0  0  0
  1  9  1  0  0  0  0
  3 15  1  0  0  0  0
M  END
> <#>
353

> <PLATE>
LAT005

> <ROW>
A

> <COL>
6

> <COORD>
A06

> <LATID>
LAT005A06

> <Supplier>
Aldrich

> <Suplier_CAT#>
103160

> <Name>
2-Hydroxybenzophenone (10X)

> <Concentration_(mM)>
25

> <IC50_(µM)>
150

> <Yeast_Active?>
+

> <Pubchem_CID>
8348

$$$$
