
  -ISIS-  08130814242D

 26 29  0  0  0  0  0  0  0  0999 V2000
    2.7667   -1.9875    0.0000 C   0  0  0  0  0  0  0  0  0  0  0  0
    2.0542   -1.7542    0.0000 N   0  0  3  0  0  0  0  0  0  0  0  0
    2.0542   -1.0042    0.0000 C   0  0  0  0  0  0  0  0  0  0  0  0
    2.7667   -0.7792    0.0000 N   0  0  0  0  0  0  0  0  0  0  0  0
    3.2167   -1.3792    0.0000 C   0  0  0  0  0  0  0  0  0  0  0  0
    3.0042   -2.7000    0.0000 C   0  0  0  0  0  0  0  0  0  0  0  0
    1.4042   -2.1292    0.0000 C   0  0  0  0  0  0  0  0  0  0  0  0
    1.4042   -0.6292    0.0000 C   0  0  0  0  0  0  0  0  0  0  0  0
    0.7542   -1.7542    0.0000 C   0  0  0  0  0  0  0  0  0  0  0  0
    0.7542   -1.0042    0.0000 C   0  0  0  0  0  0  0  0  0  0  0  0
    3.9667   -3.5667    0.0000 N   0  0  0  0  0  0  0  0  0  0  0  0
    3.7375   -2.8542    0.0000 N   0  0  0  0  0  0  0  0  0  0  0  0
    5.9375   -3.3292    0.0000 C   0  0  0  0  0  0  0  0  0  0  0  0
    2.5000   -3.2667    0.0000 O   0  0  0  0  0  0  0  0  0  0  0  0
    5.2042   -3.1667    0.0000 C   0  0  0  0  0  0  0  0  0  0  0  0
    4.7000   -3.7292    0.0000 C   0  0  0  0  0  0  0  0  0  0  0  0
    6.4375   -2.7667    0.0000 C   0  0  0  0  0  0  0  0  0  0  0  0
    3.9667   -1.3792    0.0000 C   0  0  0  0  0  0  0  0  0  0  0  0
    5.4792   -1.9000    0.0000 C   0  0  0  0  0  0  0  0  0  0  0  0
    0.1042   -0.6292    0.0000 C   0  0  0  0  0  0  0  0  0  0  0  0
    4.9667   -2.4542    0.0000 C   0  0  0  0  0  0  0  0  0  0  0  0
    6.1667   -4.0375    0.0000 C   0  0  0  0  0  0  0  0  0  0  0  0
    6.2042   -2.0542    0.0000 C   0  0  0  0  0  0  0  0  0  0  0  0
    7.1792   -2.9292    0.0000 C   0  0  0  0  0  0  0  0  0  0  0  0
    6.9042   -4.1917    0.0000 C   0  0  0  0  0  0  0  0  0  0  0  0
    7.4042   -3.6375    0.0000 C   0  0  0  0  0  0  0  0  0  0  0  0
  2  1  1  0  0  0  0
  3  2  1  0  0  0  0
  4  5  1  0  0  0  0
  5  1  2  0  0  0  0
  6  1  1  0  0  0  0
  7  2  1  0  0  0  0
  8  3  1  0  0  0  0
  9  7  2  0  0  0  0
 10  9  1  0  0  0  0
 11 12  1  0  0  0  0
 12  6  1  0  0  0  0
 13 15  1  0  0  0  0
 14  6  2  0  0  0  0
 15 16  1  0  0  0  0
 16 11  2  0  0  0  0
 17 13  1  0  0  0  0
 18  5  1  0  0  0  0
 19 21  1  0  0  0  0
 20 10  1  0  0  0  0
 21 15  2  0  0  0  0
 22 13  2  0  0  0  0
 23 19  2  0  0  0  0
 24 17  2  0  0  0  0
 25 22  1  0  0  0  0
 26 25  2  0  0  0  0
  3  4  2  0  0  0  0
 10  8  2  0  0  0  0
 23 17  1  0  0  0  0
 24 26  1  0  0  0  0
M  END
> <#>
1797

> <PLATE>
LAT023

> <ROW>
E

> <COL>
6

> <COORD>
E06

> <LATID>
LAT023E06

> <Supplier>
Chembridge

> <Suplier_CAT#>
5575246

> <Name>
Novel

> <Sec_Name>
177_F10

> <Concentration_(mM)>
2.5

> <IC50_(µM)>
10

> <Yeast_Active?>
-

> <Pubchem_CID>
691543

$$$$
