
  -ISIS-  08130814242D

 15 14  0  0  0  0  0  0  0  0999 V2000
    0.0875    1.1833    0.0000 C   0  0  0  0  0  0  0  0  0  0  0  0
    0.8167    0.7625    0.0000 C   0  0  0  0  0  0  0  0  0  0  0  0
   -0.6458    0.7625    0.0000 C   0  0  0  0  0  0  0  0  0  0  0  0
    0.0875    2.0208    0.0000 O   0  0  0  0  0  0  0  0  0  0  0  0
   -0.6458   -0.0875    0.0000 C   0  0  0  0  0  0  0  0  0  0  0  0
   -1.3708    1.1958    0.0000 C   0  0  0  0  0  0  0  0  0  0  0  0
    1.5500    1.1833    0.0000 C   0  0  0  0  0  0  0  0  0  0  0  0
    2.2792    0.7625    0.0000 N   0  0  3  0  0  0  0  0  0  0  0  0
   -2.1208   -0.0792    0.0000 C   0  0  0  0  0  0  0  0  0  0  0  0
   -2.1125    0.7708    0.0000 C   0  0  0  0  0  0  0  0  0  0  0  0
   -1.3958   -0.5042    0.0000 C   0  0  0  0  0  0  0  0  0  0  0  0
   -2.8500   -0.4875    0.0000 O   0  0  0  0  0  0  0  0  0  0  0  0
    3.0042    1.1833    0.0000 C   0  0  0  0  0  0  0  0  0  0  0  0
    2.2792   -0.0792    0.0000 C   0  0  0  0  0  0  0  0  0  0  0  0
    2.4875   -1.2292    0.0000 Cl  0  0  0  0  0  0  0  0  0  0  0  0
  2  1  1  0  0  0  0
  3  1  1  0  0  0  0
  4  1  2  0  0  0  0
  5  3  2  0  0  0  0
  6  3  1  0  0  0  0
  7  2  1  0  0  0  0
  8  7  1  0  0  0  0
  9 10  1  0  0  0  0
 10  6  2  0  0  0  0
 11  5  1  0  0  0  0
 12  9  1  0  0  0  0
 13  8  1  0  0  0  0
 14  8  1  0  0  0  0
 11  9  2  0  0  0  0
M  END
> <#>
1196

> <PLATE>
LAT015

> <ROW>
D

> <COL>
11

> <COORD>
D11

> <LATID>
LAT015D11

> <Supplier>
Chembridge

> <Suplier_CAT#>
5791161

> <Name>
Novel

> <Concentration_(mM)>
2.5

> <IC50_(µM)>
inactive

> <Yeast_Active?>
-

> <Pubchem_CID>
90394

$$$$
