
  -ISIS-  08130814242D

 50 53  0  0  0  0  0  0  0  0999 V2000
   -0.1875   -2.5542    0.0000 N   0  0  3  0  0  0  0  0  0  0  0  0
   10.5000   -2.9292    0.0000 N   0  0  3  0  0  0  0  0  0  0  0  0
   -0.5958   -1.8417    0.0000 C   0  0  0  0  0  0  0  0  0  0  0  0
   -0.6083   -3.2500    0.0000 C   0  0  0  0  0  0  0  0  0  0  0  0
   10.9042   -3.6417    0.0000 C   0  0  0  0  0  0  0  0  0  0  0  0
   10.9042   -2.2167    0.0000 C   0  0  0  0  0  0  0  0  0  0  0  0
   11.7333   -2.2167    0.0000 C   0  0  0  0  0  0  0  0  0  0  0  0
   -1.4208   -1.8417    0.0000 C   0  0  0  0  0  0  0  0  0  0  0  0
   -1.4292   -3.2500    0.0000 C   0  0  0  0  0  0  0  0  0  0  0  0
   11.7333   -3.6292    0.0000 C   0  0  0  0  0  0  0  0  0  0  0  0
   12.1417   -2.9292    0.0000 C   0  0  0  0  0  0  0  0  0  0  0  0
   -1.8333   -2.5458    0.0000 C   0  0  0  0  0  0  0  0  0  0  0  0
   -0.1958   -3.9625    0.0000 O   0  0  0  0  0  0  0  0  0  0  0  0
   -0.1875   -1.1250    0.0000 O   0  0  0  0  0  0  0  0  0  0  0  0
   10.4917   -1.5000    0.0000 O   0  0  0  0  0  0  0  0  0  0  0  0
   10.4917   -4.3542    0.0000 O   0  0  0  0  0  0  0  0  0  0  0  0
    7.6500   -2.9417    0.0000 N   0  3  3  0  0  0  0  0  0  0  0  0
    2.6625   -2.5417    0.0000 N   0  3  3  0  0  0  0  0  0  0  0  0
    9.7875   -2.5250    0.0000 C   0  0  0  0  0  0  0  0  0  0  0  0
    0.5250   -2.9625    0.0000 C   0  0  0  0  0  0  0  0  0  0  0  0
   -2.6458   -2.5458    0.0000 C   0  0  0  0  0  0  0  0  0  0  0  0
   12.9542   -2.9292    0.0000 C   0  0  0  0  0  0  0  0  0  0  0  0
    9.0750   -2.9375    0.0000 C   0  0  0  0  0  0  0  0  0  0  0  0
    1.2375   -2.5500    0.0000 C   0  0  0  0  0  0  0  0  0  0  0  0
   12.1417   -1.5125    0.0000 C   0  0  0  0  0  0  0  0  0  0  0  0
   -1.8333   -1.1292    0.0000 C   0  0  0  0  0  0  0  0  0  0  0  0
   -1.8333   -3.9542    0.0000 C   0  0  0  0  0  0  0  0  0  0  0  0
   12.1375   -4.3375    0.0000 C   0  0  0  0  0  0  0  0  0  0  0  0
    8.3625   -2.5292    0.0000 C   0  0  0  0  0  0  0  0  0  0  0  0
    1.9500   -2.9542    0.0000 C   0  0  0  0  0  0  0  0  0  0  0  0
    6.9375   -2.5292    0.0000 C   0  0  0  0  0  0  0  0  0  0  0  0
    3.3750   -2.9542    0.0000 C   0  0  0  0  0  0  0  0  0  0  0  0
   12.9542   -1.5125    0.0000 C   0  0  0  0  0  0  0  0  0  0  0  0
   -2.6458   -1.1292    0.0000 C   0  0  0  0  0  0  0  0  0  0  0  0
   -2.6500   -3.9542    0.0000 C   0  0  0  0  0  0  0  0  0  0  0  0
   12.9542   -4.3375    0.0000 C   0  0  0  0  0  0  0  0  0  0  0  0
    7.6417   -2.1167    0.0000 C   0  0  0  0  0  0  0  0  0  0  0  0
    2.6542   -1.7167    0.0000 C   0  0  0  0  0  0  0  0  0  0  0  0
    2.6542   -3.3667    0.0000 C   0  0  0  0  0  0  0  0  0  0  0  0
    7.6417   -3.7667    0.0000 C   0  0  0  0  0  0  0  0  0  0  0  0
   -3.0542   -1.8333    0.0000 C   0  0  0  0  0  0  0  0  0  0  0  0
   13.3667   -2.2250    0.0000 C   0  0  0  0  0  0  0  0  0  0  0  0
   -3.0542   -3.2458    0.0000 C   0  0  0  0  0  0  0  0  0  0  0  0
   13.3583   -3.6333    0.0000 C   0  0  0  0  0  0  0  0  0  0  0  0
    4.0875   -2.5417    0.0000 C   0  0  0  0  0  0  0  0  0  0  0  0
    6.2250   -2.9417    0.0000 C   0  0  0  0  0  0  0  0  0  0  0  0
    5.5125   -2.5375    0.0000 C   0  0  0  0  0  0  0  0  0  0  0  0
    4.8000   -2.9500    0.0000 C   0  0  0  0  0  0  0  0  0  0  0  0
    2.4042   -4.4250    0.0000 Br  0  5  0  0  0  0  0  0  0  0  0  0
    7.4917   -4.6750    0.0000 Br  0  5  0  0  0  0  0  0  0  0  0  0
  2 19  1  0  0  0  0
  3  1  1  0  0  0  0
  4  1  1  0  0  0  0
  5  2  1  0  0  0  0
  6  2  1  0  0  0  0
  7  6  1  0  0  0  0
  8  3  1  0  0  0  0
  9  4  1  0  0  0  0
 10  5  1  0  0  0  0
 11  7  2  0  0  0  0
 12  9  1  0  0  0  0
 13  4  2  0  0  0  0
 14  3  2  0  0  0  0
 15  6  2  0  0  0  0
 16  5  2  0  0  0  0
 17 31  1  0  0  0  0
 18 30  1  0  0  0  0
 19 23  1  0  0  0  0
 20  1  1  0  0  0  0
 21 12  1  0  0  0  0
 22 11  1  0  0  0  0
 23 29  1  0  0  0  0
 24 20  1  0  0  0  0
 25  7  1  0  0  0  0
 26  8  1  0  0  0  0
 27  9  2  0  0  0  0
 28 10  2  0  0  0  0
 29 17  1  0  0  0  0
 30 24  1  0  0  0  0
 31 46  1  0  0  0  0
 32 18  1  0  0  0  0
 33 25  2  0  0  0  0
 34 26  2  0  0  0  0
 35 27  1  0  0  0  0
 36 28  1  0  0  0  0
 37 17  1  0  0  0  0
 38 18  1  0  0  0  0
 39 18  1  0  0  0  0
 40 17  1  0  0  0  0
 41 21  2  0  0  0  0
 42 33  1  0  0  0  0
 43 35  2  0  0  0  0
 44 22  1  0  0  0  0
 45 32  1  0  0  0  0
 46 47  1  0  0  0  0
 47 48  1  0  0  0  0
 48 45  1  0  0  0  0
 12  8  2  0  0  0  0
 21 43  1  0  0  0  0
 34 41  1  0  0  0  0
 11 10  1  0  0  0  0
 22 42  2  0  0  0  0
 36 44  2  0  0  0  0
M  CHG  4  17   1  18   1  49  -1  50  -1
M  END
> <#>
289

> <PLATE>
LAT004

> <ROW>
A

> <COL>
8

> <COORD>
A08

> <LATID>
LAT004A08

> <Supplier>
Sigma

> <Suplier_CAT#>
W 4761

> <Name>
WB 64

> <Concentration_(mM)>
2.5

> <IC50_(µM)>
>100

> <Yeast_Active?>
-

> <Pubchem_CID>
405251

> <Description>
Ligand for the allosteric site of the M2 muscarinic acetylcholine receptor.

$$$$
