
  -ISIS-  08130814242D

 28 28  0  0  0  0  0  0  0  0999 V2000
    7.1124   -2.6162    0.0000 C   0  0  0  0  0  0  0  0  0  0  0  0
    7.1124   -3.5085    0.0000 C   0  0  0  0  0  0  0  0  0  0  0  0
    7.8852   -3.9547    0.0000 O   0  0  0  0  0  0  0  0  0  0  0  0
    6.3397   -3.9547    0.0000 C   0  0  0  0  0  0  0  0  0  0  0  0
    6.3397   -4.8470    0.0000 O   0  0  0  0  0  0  0  0  0  0  0  0
    5.5669   -3.5085    0.0000 C   0  0  0  0  0  0  0  0  0  0  0  0
    4.7941   -3.9547    0.0000 C   0  0  0  0  0  0  0  0  0  0  0  0
    4.7941   -4.8470    0.0000 O   0  0  0  0  0  0  0  0  0  0  0  0
    4.0213   -3.5085    0.0000 C   0  0  0  0  0  0  0  0  0  0  0  0
    4.0213   -2.6162    0.0000 C   0  0  0  0  0  0  0  0  0  0  0  0
    3.2486   -2.1700    0.0000 O   0  0  0  0  0  0  0  0  0  0  0  0
    4.7941   -2.1700    0.0000 C   0  0  0  0  0  0  0  0  0  0  0  0
    5.5669   -2.6162    0.0000 C   0  0  0  0  0  0  0  0  0  0  0  0
    6.3397   -2.1700    0.0000 O   0  0  0  0  0  0  0  0  0  0  0  0
    7.8852   -2.1700    0.0000 C   0  0  0  0  0  0  0  0  0  0  0  0
    7.8852   -1.2777    0.0000 C   0  0  0  0  0  0  0  0  0  0  0  0
    8.6580   -0.8315    0.0000 C   0  0  0  0  0  0  0  0  0  0  0  0
    8.6580    0.0608    0.0000 O   0  0  0  0  0  0  0  0  0  0  0  0
    9.4307   -1.2777    0.0000 C   0  0  0  0  0  0  0  0  0  0  0  0
   10.2035   -0.8315    0.0000 O   0  0  0  0  0  0  0  0  0  0  0  0
    9.4307   -2.1700    0.0000 C   0  0  0  0  0  0  0  0  0  0  0  0
    8.6580   -2.6162    0.0000 C   0  0  0  0  0  0  0  0  0  0  0  0
    7.8852   -4.8470    0.0000 H   0  0  0  0  0  0  0  0  0  0  0  0
    8.6580   -5.2931    0.0000 O   0  0  0  0  0  0  0  0  0  0  0  0
    9.4307   -4.8470    0.0000 H   0  0  0  0  0  0  0  0  0  0  0  0
    5.5669   -5.2931    0.0000 H   0  0  0  0  0  0  0  0  0  0  0  0
    5.5669   -6.1855    0.0000 O   0  0  0  0  0  0  0  0  0  0  0  0
    6.3397   -6.6316    0.0000 H   0  0  0  0  0  0  0  0  0  0  0  0
  4  5  2  0  0  0  0
  4  6  1  0  0  0  0
  6  7  1  0  0  0  0
  7  8  1  0  0  0  0
  7  9  2  0  0  0  0
  9 10  1  0  0  0  0
 10 11  1  0  0  0  0
 10 12  2  0  0  0  0
 12 13  1  0  0  0  0
  6 13  2  0  0  0  0
 13 14  1  0  0  0  0
  1 14  1  0  0  0  0
  1 15  1  0  0  0  0
 15 16  1  0  0  0  0
 16 17  2  0  0  0  0
 17 18  1  0  0  0  0
 17 19  1  0  0  0  0
 19 20  1  0  0  0  0
 19 21  2  0  0  0  0
 21 22  1  0  0  0  0
 15 22  2  0  0  0  0
 23 24  1  0  0  0  0
 24 25  1  0  0  0  0
  1  2  2  0  0  0  0
  2  3  1  0  0  0  0
  2  4  1  0  0  0  0
 26 27  1  0  0  0  0
 27 28  1  0  0  0  0
M  END
> <#>
502

> <PLATE>
LAT007

> <ROW>
F

> <COL>
4

> <COORD>
F04

> <LATID>
LAT007F04

> <Supplier>
Sigma

> <Suplier_CAT#>
Q0125

> <Name>
Quercetin Dihydrate

> <Concentration_(mM)>
2.5

> <IC50_(µM)>
inactive

> <Yeast_Active?>
-

> <Pubchem_CID>
5284452

$$$$
