
  -ISIS-  08130814242D

 19 20  0  0  0  0  0  0  0  0999 V2000
   -1.7125    0.1458    0.0000 C   0  0  0  0  0  0  0  0  0  0  0  0
   -1.1333   -0.7792    0.0000 C   0  0  0  0  0  0  0  0  0  0  0  0
   -1.6333   -1.7500    0.0000 C   0  0  3  0  0  0  0  0  0  0  0  0
   -1.2208    1.0958    0.0000 C   0  0  0  0  0  0  0  0  0  0  0  0
   -2.7333   -1.8167    0.0000 C   0  0  0  0  0  0  0  0  0  0  0  0
   -2.8500    0.1000    0.0000 C   0  0  3  0  0  0  0  0  0  0  0  0
   -0.0708   -0.7000    0.0000 O   0  0  0  0  0  0  0  0  0  0  0  0
   -3.3333   -0.9000    0.0000 C   0  0  0  0  0  0  0  0  0  0  0  0
   -0.2000    1.0958    0.0000 C   0  0  0  0  0  0  0  0  0  0  0  0
   -1.0958   -2.6500    0.0000 C   0  0  3  0  0  0  0  0  0  0  0  0
    1.9042    1.2333    0.0000 C   0  0  0  0  0  0  0  0  0  0  0  0
    3.0375    1.3000    0.0000 N   0  0  0  0  0  0  0  0  0  0  0  0
    0.2542    2.0833    0.0000 C   0  0  0  0  0  0  0  0  0  0  0  0
    0.3375    0.2333    0.0000 C   0  0  0  0  0  0  0  0  0  0  0  0
    1.3167    2.1500    0.0000 C   0  0  0  0  0  0  0  0  0  0  0  0
    1.3792    0.2833    0.0000 C   0  0  0  0  0  0  0  0  0  0  0  0
   -3.4500    0.9625    0.0000 C   0  0  0  0  0  0  0  0  0  0  0  0
   -0.0458   -2.5542    0.0000 C   0  0  0  0  0  0  0  0  0  0  0  0
   -1.5958   -3.6292    0.0000 C   0  0  0  0  0  0  0  0  0  0  0  0
  2  1  1  0  0  0  0
  3  2  1  0  0  0  0
  4  1  2  0  0  0  0
  5  8  1  0  0  0  0
  6  1  1  0  0  0  0
  7  2  2  0  0  0  0
  8  6  1  0  0  0  0
  9  4  1  0  0  0  0
 10  3  1  0  0  0  0
 11 16  2  0  0  0  0
 12 11  1  0  0  0  0
 13  9  1  0  0  0  0
 14  9  2  0  0  0  0
 15 13  2  0  0  0  0
 16 14  1  0  0  0  0
 17  6  1  0  0  0  0
 18 10  1  0  0  0  0
 19 10  1  0  0  0  0
  3  5  1  0  0  0  0
 11 15  1  0  0  0  0
M  END
> <#>
1916

> <PLATE>
LAT024

> <ROW>
D

> <COL>
11

> <COORD>
D11

> <LATID>
LAT024D11

> <Supplier>
Chembridge

> <Suplier_CAT#>
5531910

> <Name>
Novel

> <Sec_Name>
153_G07

> <Concentration_(mM)>
2.5

> <IC50_(µM)>
78

> <Yeast_Active?>
-

> <Pubchem_CID>
5023023

$$$$
