
  -ISIS-  08130814242D

 35 39  0  0  0  0  0  0  0  0999 V2000
   -0.7333    1.8833    0.0000 C   0  0  0  0  0  0  0  0  0  0  0  0
    0.8875    1.8833    0.0000 C   0  0  0  0  0  0  0  0  0  0  0  0
    0.0792    1.4125    0.0000 C   0  0  3  0  0  0  0  0  0  0  0  0
   -0.7333    2.8208    0.0000 C   0  0  0  0  0  0  0  0  0  0  0  0
    0.8875    2.8208    0.0000 C   0  0  0  0  0  0  0  0  0  0  0  0
    0.0792    0.4833    0.0000 C   0  0  0  0  0  0  0  0  0  0  0  0
    0.0792    3.2958    0.0000 O   0  0  0  0  0  0  0  0  0  0  0  0
   -2.4958   -4.0375    0.0000 N   0  3  0  0  0  0  0  0  0  0  0  0
   -0.3500   -0.9667    0.0000 C   0  0  0  0  0  0  0  0  0  0  0  0
    1.7000    1.4125    0.0000 C   0  0  0  0  0  0  0  0  0  0  0  0
   -1.5458    1.4125    0.0000 C   0  0  0  0  0  0  0  0  0  0  0  0
   -0.7125   -0.1167    0.0000 O   0  0  0  0  0  0  0  0  0  0  0  0
   -0.8958   -1.7292    0.0000 C   0  0  0  0  0  0  0  0  0  0  0  0
    0.8667   -0.0500    0.0000 C   0  0  0  0  0  0  0  0  0  0  0  0
   -0.5125   -2.5792    0.0000 C   0  0  0  0  0  0  0  0  0  0  0  0
   -1.9708   -3.2792    0.0000 C   0  0  0  0  0  0  0  0  0  0  0  0
    0.6292   -0.9500    0.0000 C   0  0  0  0  0  0  0  0  0  0  0  0
   -1.0333   -3.3375    0.0000 C   0  0  0  0  0  0  0  0  0  0  0  0
   -1.5458    3.2958    0.0000 C   0  0  0  0  0  0  0  0  0  0  0  0
    1.7000    3.2958    0.0000 C   0  0  0  0  0  0  0  0  0  0  0  0
   -2.3500    2.8208    0.0000 C   0  0  3  0  0  0  0  0  0  0  0  0
    2.5042    2.8208    0.0000 C   0  0  3  0  0  0  0  0  0  0  0  0
   -1.8333   -1.6667    0.0000 C   0  0  0  0  0  0  0  0  0  0  0  0
    2.5042    1.8833    0.0000 C   0  0  0  0  0  0  0  0  0  0  0  0
   -2.3500    1.8833    0.0000 C   0  0  0  0  0  0  0  0  0  0  0  0
   -3.4125   -3.9667    0.0000 O   0  5  0  0  0  0  0  0  0  0  0  0
   -2.0833   -4.8542    0.0000 O   0  0  0  0  0  0  0  0  0  0  0  0
   -1.5458    0.4833    0.0000 O   0  0  0  0  0  0  0  0  0  0  0  0
    1.7000    0.4833    0.0000 O   0  0  0  0  0  0  0  0  0  0  0  0
   -2.3625   -2.4167    0.0000 C   0  0  0  0  0  0  0  0  0  0  0  0
    0.4167   -2.6667    0.0000 Cl  0  0  0  0  0  0  0  0  0  0  0  0
   -2.5125    3.8125    0.0000 C   0  0  0  0  0  0  0  0  0  0  0  0
    2.5792    3.7083    0.0000 C   0  0  0  0  0  0  0  0  0  0  0  0
    3.3167    2.3708    0.0000 C   0  0  0  0  0  0  0  0  0  0  0  0
   -3.2125    2.3708    0.0000 C   0  0  0  0  0  0  0  0  0  0  0  0
  2  3  1  0  0  0  0
  3  1  1  0  0  0  0
  4  1  2  0  0  0  0
  5  7  1  0  0  0  0
  6  3  1  0  0  0  0
  7  4  1  0  0  0  0
  8 16  1  0  0  0  0
  9 12  1  0  0  0  0
 10  2  1  0  0  0  0
 11  1  1  0  0  0  0
 12  6  1  0  0  0  0
 13  9  1  0  0  0  0
 14  6  2  0  0  0  0
 15 13  1  0  0  0  0
 16 30  2  0  0  0  0
 17 14  1  0  0  0  0
 18 15  2  0  0  0  0
 19  4  1  0  0  0  0
 20  5  1  0  0  0  0
 21 25  1  0  0  0  0
 22 20  1  0  0  0  0
 23 13  2  0  0  0  0
 24 10  1  0  0  0  0
 25 11  1  0  0  0  0
 26  8  1  0  0  0  0
 27  8  2  0  0  0  0
 28 11  2  0  0  0  0
 29 10  2  0  0  0  0
 30 23  1  0  0  0  0
 31 15  1  0  0  0  0
 32 21  1  0  0  0  0
 33 22  1  0  0  0  0
 34 22  1  0  0  0  0
 35 21  1  0  0  0  0
 21 19  1  0  0  0  0
  5  2  2  0  0  0  0
 17  9  2  0  0  0  0
 22 24  1  0  0  0  0
 18 16  1  0  0  0  0
M  CHG  2   8   1  26  -1
M  END
> <#>
1052

> <PLATE>
LAT014

> <ROW>
D

> <COL>
3

> <COORD>
D03

> <LATID>
LAT014D03

> <Supplier>
Chembridge

> <Suplier_CAT#>
5380726

> <Name>
Novel

> <Concentration_(mM)>
2.5

> <IC50_(µM)>
>100

> <Yeast_Active?>
-

> <Pubchem_CID>
1379763

$$$$
