
  -ISIS-  08130814242D

 15 16  0  0  0  0  0  0  0  0999 V2000
    1.7375   -0.4542    0.0000 C   0  0  0  0  0  0  0  0  0  0  0  0
    1.5167   -1.1167    0.0000 C   0  0  0  0  0  0  0  0  0  0  0  0
    0.8375   -1.1000    0.0000 S   0  0  0  0  0  0  0  0  0  0  0  0
    1.1792   -0.0167    0.0000 C   0  0  0  0  0  0  0  0  0  0  0  0
    0.6167   -0.4375    0.0000 C   0  0  0  0  0  0  0  0  0  0  0  0
    2.4375   -0.2542    0.0000 C   0  0  0  0  0  0  0  0  0  0  0  0
    1.9167   -1.7167    0.0000 N   0  0  0  0  0  0  0  0  0  0  0  0
    2.6167    0.4208    0.0000 O   0  0  0  0  0  0  0  0  0  0  0  0
    2.9167   -0.7542    0.0000 O   0  0  0  0  0  0  0  0  0  0  0  0
    1.2167    0.7000    0.0000 C   0  0  0  0  0  0  0  0  0  0  0  0
   -0.0833   -0.2375    0.0000 C   0  0  0  0  0  0  0  0  0  0  0  0
    3.6792   -0.6167    0.0000 C   0  0  0  0  0  0  0  0  0  0  0  0
    0.7000    1.1625    0.0000 C   0  0  0  0  0  0  0  0  0  0  0  0
   -0.3625    0.4000    0.0000 C   0  0  0  0  0  0  0  0  0  0  0  0
    0.0000    1.0458    0.0000 C   0  0  0  0  0  0  0  0  0  0  0  0
  2  1  2  0  0  0  0
  3  2  1  0  0  0  0
  4  1  1  0  0  0  0
  5  4  2  0  0  0  0
  6  1  1  0  0  0  0
  7  2  1  0  0  0  0
  8  6  2  0  0  0  0
  9  6  1  0  0  0  0
 10  4  1  0  0  0  0
 11  5  1  0  0  0  0
 12  9  1  0  0  0  0
 13 10  1  0  0  0  0
 14 11  1  0  0  0  0
 15 13  1  0  0  0  0
  3  5  1  0  0  0  0
 14 15  1  0  0  0  0
M  END
> <#>
2027

> <PLATE>
LAT026

> <ROW>
C

> <COL>
5

> <COORD>
C05

> <LATID>
LAT026C05

> <Supplier>
Chembridge

> <Suplier_CAT#>
5690624

> <Sec_Name>
219_C09

> <Concentration_(mM)>
2.5

> <IC50_(µM)>
>100

> <Yeast_Active?>
-

> <Pubchem_CID>
2756554

$$$$
