
  -ISIS-  08130814242D

 20 22  0  0  0  0  0  0  0  0999 V2000
   -1.0708    1.2500    0.0000 C   0  0  0  0  0  0  0  0  0  0  0  0
   -1.6125    2.0208    0.0000 N   0  0  0  0  0  0  0  0  0  0  0  0
   -1.6125    0.4958    0.0000 N   0  0  0  0  0  0  0  0  0  0  0  0
   -2.5125    1.7125    0.0000 C   0  0  0  0  0  0  0  0  0  0  0  0
   -2.5125    0.7708    0.0000 C   0  0  0  0  0  0  0  0  0  0  0  0
   -0.1333    1.2500    0.0000 S   0  0  0  0  0  0  0  0  0  0  0  0
    1.7667   -0.3875    0.0000 C   0  0  0  0  0  0  0  0  0  0  0  0
    0.3500    0.4333    0.0000 C   0  0  0  0  0  0  0  0  0  0  0  0
    2.7042   -0.4042    0.0000 C   0  0  0  0  0  0  0  0  0  0  0  0
    1.2875   -1.2042    0.0000 C   0  0  0  0  0  0  0  0  0  0  0  0
    1.2875    0.4333    0.0000 C   0  0  3  0  0  0  0  0  0  0  0  0
    2.7042   -2.0292    0.0000 C   0  0  0  0  0  0  0  0  0  0  0  0
    3.1667   -1.2042    0.0000 C   0  0  0  0  0  0  0  0  0  0  0  0
    1.7667   -2.0292    0.0000 C   0  0  0  0  0  0  0  0  0  0  0  0
    3.1875   -2.8667    0.0000 Cl  0  0  0  0  0  0  0  0  0  0  0  0
    1.7667    1.2500    0.0000 O   0  0  0  0  0  0  0  0  0  0  0  0
   -3.3125    2.1958    0.0000 C   0  0  0  0  0  0  0  0  0  0  0  0
   -3.3125    0.3125    0.0000 C   0  0  0  0  0  0  0  0  0  0  0  0
   -4.1333    1.7125    0.0000 C   0  0  0  0  0  0  0  0  0  0  0  0
   -4.1333    0.7708    0.0000 C   0  0  0  0  0  0  0  0  0  0  0  0
  2  1  2  0  0  0  0
  3  1  1  0  0  0  0
  4  2  1  0  0  0  0
  5  3  1  0  0  0  0
  6  1  1  0  0  0  0
  7 11  1  0  0  0  0
  8  6  1  0  0  0  0
  9  7  2  0  0  0  0
 10  7  1  0  0  0  0
 11  8  1  0  0  0  0
 12 14  1  0  0  0  0
 13  9  1  0  0  0  0
 14 10  2  0  0  0  0
 15 12  1  0  0  0  0
 16 11  1  0  0  0  0
 17  4  1  0  0  0  0
 18  5  1  0  0  0  0
 19 17  2  0  0  0  0
 20 18  2  0  0  0  0
  5  4  2  0  0  0  0
 20 19  1  0  0  0  0
 12 13  2  0  0  0  0
M  END
> <#>
2013

> <PLATE>
LAT026

> <ROW>
E

> <COL>
3

> <COORD>
E03

> <LATID>
LAT026E03

> <Supplier>
Chembridge

> <Suplier_CAT#>
5661161

> <Sec_Name>
206_E03

> <Concentration_(mM)>
2.5

> <IC50_(µM)>
43

> <Yeast_Active?>
-

> <Pubchem_CID>
NULL

$$$$
