
  -ISIS-  08130814242D

 33 36  0  0  0  0  0  0  0  0999 V2000
   -0.9500   -0.6667    0.0000 N   0  0  3  0  0  0  0  0  0  0  0  0
   -1.6958   -1.1167    0.0000 C   0  0  0  0  0  0  0  0  0  0  0  0
   -1.4625   -2.0542    0.0000 N   0  0  0  0  0  0  0  0  0  0  0  0
   -0.2958   -1.2375    0.0000 C   0  0  0  0  0  0  0  0  0  0  0  0
   -0.6333   -2.0500    0.0000 N   0  0  0  0  0  0  0  0  0  0  0  0
   -2.5125   -0.7875    0.0000 C   0  0  0  0  0  0  0  0  0  0  0  0
    0.5875   -1.0542    0.0000 S   0  0  0  0  0  0  0  0  0  0  0  0
   -0.9500    0.2333    0.0000 C   0  0  0  0  0  0  0  0  0  0  0  0
    1.7042   -0.0667    0.0000 C   0  0  0  0  0  0  0  0  0  0  0  0
    2.0042    0.7708    0.0000 N   0  0  0  0  0  0  0  0  0  0  0  0
   -3.1708   -1.3542    0.0000 C   0  0  0  0  0  0  0  0  0  0  0  0
    3.7500    3.3833    0.0000 C   0  0  0  0  0  0  0  0  0  0  0  0
    2.2875   -0.7292    0.0000 O   0  0  0  0  0  0  0  0  0  0  0  0
    0.8667   -0.2167    0.0000 C   0  0  0  0  0  0  0  0  0  0  0  0
    2.8875    3.2333    0.0000 C   0  0  0  0  0  0  0  0  0  0  0  0
    4.3042    2.7208    0.0000 C   0  0  0  0  0  0  0  0  0  0  0  0
   -3.9958   -1.0542    0.0000 C   0  0  0  0  0  0  0  0  0  0  0  0
    2.8500    0.9208    0.0000 C   0  0  0  0  0  0  0  0  0  0  0  0
    3.1500    1.7333    0.0000 C   0  0  0  0  0  0  0  0  0  0  0  0
    4.0500    4.2167    0.0000 C   0  0  3  0  0  0  0  0  0  0  0  0
    2.5875    2.3958    0.0000 C   0  0  0  0  0  0  0  0  0  0  0  0
    4.0042    1.9125    0.0000 C   0  0  0  0  0  0  0  0  0  0  0  0
   -4.6958   -1.6292    0.0000 F   0  0  0  0  0  0  0  0  0  0  0  0
   -2.6500    0.0500    0.0000 C   0  0  0  0  0  0  0  0  0  0  0  0
   -3.4708    0.3833    0.0000 C   0  0  0  0  0  0  0  0  0  0  0  0
   -0.1958    0.6500    0.0000 C   0  0  0  0  0  0  0  0  0  0  0  0
   -1.7125    0.6500    0.0000 C   0  0  0  0  0  0  0  0  0  0  0  0
   -4.1333   -0.1875    0.0000 C   0  0  0  0  0  0  0  0  0  0  0  0
    3.4875    4.8792    0.0000 C   0  0  0  0  0  0  0  0  0  0  0  0
    4.9042    4.3667    0.0000 C   0  0  0  0  0  0  0  0  0  0  0  0
   -1.7125    1.5500    0.0000 C   0  0  0  0  0  0  0  0  0  0  0  0
   -0.1958    1.5500    0.0000 C   0  0  0  0  0  0  0  0  0  0  0  0
   -0.9500    1.9708    0.0000 C   0  0  0  0  0  0  0  0  0  0  0  0
  2  1  1  0  0  0  0
  3  2  2  0  0  0  0
  4  1  1  0  0  0  0
  5  4  2  0  0  0  0
  6  2  1  0  0  0  0
  7  4  1  0  0  0  0
  8  1  1  0  0  0  0
  9 14  1  0  0  0  0
 10  9  1  0  0  0  0
 11  6  2  0  0  0  0
 12 16  1  0  0  0  0
 13  9  2  0  0  0  0
 14  7  1  0  0  0  0
 15 21  1  0  0  0  0
 16 22  2  0  0  0  0
 17 11  1  0  0  0  0
 18 10  1  0  0  0  0
 19 18  1  0  0  0  0
 20 12  1  0  0  0  0
 21 19  2  0  0  0  0
 22 19  1  0  0  0  0
 23 17  1  0  0  0  0
 24  6  1  0  0  0  0
 25 24  2  0  0  0  0
 26  8  1  0  0  0  0
 27  8  2  0  0  0  0
 28 25  1  0  0  0  0
 29 20  1  0  0  0  0
 30 20  1  0  0  0  0
 31 27  1  0  0  0  0
 32 26  2  0  0  0  0
 33 31  2  0  0  0  0
  5  3  1  0  0  0  0
 32 33  1  0  0  0  0
 28 17  2  0  0  0  0
 15 12  2  0  0  0  0
M  END
> <#>
1710

> <PLATE>
LAT022

> <ROW>
F

> <COL>
5

> <COORD>
F05

> <LATID>
LAT022F05

> <Supplier>
Chembridge

> <Suplier_CAT#>
5925106

> <Name>
Novel

> <Concentration_(mM)>
2.5

> <IC50_(µM)>
inactive 

> <Yeast_Active?>
-

> <Pubchem_CID>
1799406

$$$$
