
  -ISIS-  08130814242D

 18 18  0  0  0  0  0  0  0  0999 V2000
    6.6292   -1.9000    0.0000 C   0  0  0  0  0  0  0  0  0  0  0  0
    2.7292   -1.9000    0.0000 C   0  0  0  0  0  0  0  0  0  0  0  0
    5.9792   -1.5250    0.0000 C   0  0  3  0  0  0  0  0  0  0  0  0
    2.0667   -1.5167    0.0000 C   0  0  0  0  0  0  0  0  0  0  0  0
    2.7292   -2.6542    0.0000 C   0  0  0  0  0  0  0  0  0  0  0  0
    6.6250   -2.6500    0.0000 O   0  0  0  0  0  0  0  0  0  0  0  0
    1.4292   -1.9000    0.0000 C   0  0  0  0  0  0  0  0  0  0  0  0
    7.2792   -1.5292    0.0000 O   0  0  0  0  0  0  0  0  0  0  0  0
    2.0667   -3.0292    0.0000 C   0  0  0  0  0  0  0  0  0  0  0  0
    1.4292   -2.6542    0.0000 C   0  0  0  0  0  0  0  0  0  0  0  0
    3.3792   -1.5250    0.0000 O   0  0  0  0  0  0  0  0  0  0  0  0
    5.3292   -1.9000    0.0000 C   0  0  0  0  0  0  0  0  0  0  0  0
    6.5167   -1.0542    0.0000 C   0  0  0  0  0  0  0  0  0  0  0  0
    5.4792   -1.0542    0.0000 C   0  0  0  0  0  0  0  0  0  0  0  0
    2.0667   -0.7667    0.0000 C   0  0  0  0  0  0  0  0  0  0  0  0
    4.0292   -1.9000    0.0000 C   0  0  0  0  0  0  0  0  0  0  0  0
    2.0667   -3.7792    0.0000 C   0  0  0  0  0  0  0  0  0  0  0  0
    4.6792   -1.5250    0.0000 C   0  0  0  0  0  0  0  0  0  0  0  0
  2 11  1  0  0  0  0
  3  1  1  0  0  0  0
  4  2  1  0  0  0  0
  5  2  2  0  0  0  0
  6  1  2  0  0  0  0
  7  4  2  0  0  0  0
  8  1  1  0  0  0  0
  9  5  1  0  0  0  0
 10  9  2  0  0  0  0
 11 16  1  0  0  0  0
 12  3  1  0  0  0  0
 13  3  1  0  0  0  0
 14  3  1  0  0  0  0
 15  4  1  0  0  0  0
 16 18  1  0  0  0  0
 17  9  1  0  0  0  0
 18 12  1  0  0  0  0
  7 10  1  0  0  0  0
M  END
> <#>
58

> <PLATE>
LAT001

> <ROW>
B

> <COL>
9

> <COORD>
B09

> <LATID>
LAT001B09

> <Supplier>
Microsource

> <Suplier_CAT#>
01500313

> <Name>
Gemfibrozil

> <Concentration_(mM)>
2.5

> <IC50_(µM)>
37

> <Yeast_Active?>
-

> <Pubchem_CID>
3463

> <Description>
Antihyperlipoproteinemic

$$$$
