
  -ISIS-  08130814242D

 14 14  0  0  0  0  0  0  0  0999 V2000
    3.8875    1.2500    0.0000 C   0  0  0  0  0  0  0  0  0  0  0  0
    1.6292    1.2125    0.0000 N   0  0  0  0  0  0  0  0  0  0  0  0
    2.7500    1.8708    0.0000 N   0  0  0  0  0  0  0  0  0  0  0  0
    5.0042    1.9333    0.0000 O   0  0  0  0  0  0  0  0  0  0  0  0
   -1.8125   -0.8042    0.0000 N   0  0  0  0  0  0  0  0  0  0  0  0
    0.4667    1.8500    0.0000 C   0  0  0  0  0  0  0  0  0  0  0  0
   -0.6708    1.1708    0.0000 C   0  0  0  0  0  0  0  0  0  0  0  0
    3.9042   -0.0667    0.0000 O   0  0  0  0  0  0  0  0  0  0  0  0
   -0.6708   -0.1667    0.0000 C   0  0  0  0  0  0  0  0  0  0  0  0
   -2.9500   -0.1667    0.0000 C   0  0  0  0  0  0  0  0  0  0  0  0
   -1.8125    1.8125    0.0000 C   0  0  0  0  0  0  0  0  0  0  0  0
    2.7875   -0.7292    0.0000 C   0  0  0  0  0  0  0  0  0  0  0  0
   -2.9500    1.1500    0.0000 C   0  0  0  0  0  0  0  0  0  0  0  0
    2.7875   -2.0500    0.0000 C   0  0  0  0  0  0  0  0  0  0  0  0
  2  3  1  0  0  0  0
  3  1  1  0  0  0  0
  4  1  2  0  0  0  0
  5  9  2  0  0  0  0
  6  2  2  0  0  0  0
  7  6  1  0  0  0  0
  8  1  1  0  0  0  0
  9  7  1  0  0  0  0
 10 13  2  0  0  0  0
 11  7  2  0  0  0  0
 12  8  1  0  0  0  0
 13 11  1  0  0  0  0
 14 12  1  0  0  0  0
  5 10  1  0  0  0  0
M  END
> <#>
1628

> <PLATE>
LAT021

> <ROW>
D

> <COL>
5

> <COORD>
D05

> <LATID>
LAT021D05

> <Supplier>
Chembridge

> <Suplier_CAT#>
5111035

> <Name>
Novel

> <Concentration_(mM)>
2.5

> <IC50_(µM)>
inactive

> <Yeast_Active?>
-

> <Pubchem_CID>
796661

$$$$
