
  -ISIS-  08130814242D

 18 20  0  0  0  0  0  0  0  0999 V2000
   -0.1708    0.8208    0.0000 N   0  0  3  0  0  0  0  0  0  0  0  0
   -3.0333    2.2833    0.0000 N   0  3  0  0  0  0  0  0  0  0  0  0
    0.2875    1.4625    0.0000 C   0  0  0  0  0  0  0  0  0  0  0  0
   -0.1708    2.1000    0.0000 N   0  0  0  0  0  0  0  0  0  0  0  0
   -0.9333    1.0625    0.0000 C   0  0  0  0  0  0  0  0  0  0  0  0
   -0.9333    1.8625    0.0000 C   0  0  0  0  0  0  0  0  0  0  0  0
   -2.3125    1.8625    0.0000 C   0  0  0  0  0  0  0  0  0  0  0  0
   -1.6125    2.2708    0.0000 C   0  0  0  0  0  0  0  0  0  0  0  0
   -1.6125    0.6625    0.0000 C   0  0  0  0  0  0  0  0  0  0  0  0
   -3.0333    3.0833    0.0000 O   0  5  0  0  0  0  0  0  0  0  0  0
   -3.7125    1.8833    0.0000 O   0  0  0  0  0  0  0  0  0  0  0  0
    0.0292    0.0625    0.0000 C   0  0  0  0  0  0  0  0  0  0  0  0
   -2.3125    1.0625    0.0000 C   0  0  0  0  0  0  0  0  0  0  0  0
   -0.5708   -0.5000    0.0000 C   0  0  0  0  0  0  0  0  0  0  0  0
    0.7667   -0.1792    0.0000 C   0  0  0  0  0  0  0  0  0  0  0  0
    0.9667   -0.9375    0.0000 C   0  0  0  0  0  0  0  0  0  0  0  0
   -0.3958   -1.2542    0.0000 C   0  0  0  0  0  0  0  0  0  0  0  0
    0.3667   -1.5167    0.0000 C   0  0  0  0  0  0  0  0  0  0  0  0
  2  7  1  0  0  0  0
  3  1  1  0  0  0  0
  4  3  2  0  0  0  0
  5  1  1  0  0  0  0
  6  5  2  0  0  0  0
  7 13  1  0  0  0  0
  8  6  1  0  0  0  0
  9  5  1  0  0  0  0
 10  2  1  0  0  0  0
 11  2  2  0  0  0  0
 12  1  1  0  0  0  0
 13  9  2  0  0  0  0
 14 12  1  0  0  0  0
 15 12  2  0  0  0  0
 16 15  1  0  0  0  0
 17 14  2  0  0  0  0
 18 16  2  0  0  0  0
  6  4  1  0  0  0  0
  8  7  2  0  0  0  0
 17 18  1  0  0  0  0
M  CHG  2   2   1  10  -1
M  END
> <#>
810

> <PLATE>
LAT011

> <ROW>
B

> <COL>
3

> <COORD>
B03

> <LATID>
LAT011B03

> <Supplier>
Chembridge

> <Suplier_CAT#>
5659846

> <Name>
Novel

> <Sec_Name>
205_H04

> <Concentration_(mM)>
2.5

> <IC50_(µM)>
19

> <Yeast_Active?>
-

> <Pubchem_CID>
739094

$$$$
