
  -ISIS-  08130814242D

 12 12  0  0  0  0  0  0  0  0999 V2000
    2.6125   -3.0558    0.0000 C   0  0  0  0  0  0  0  0  0  0  0  0
    3.8625   -3.0558    0.0000 C   0  0  0  0  0  0  0  0  0  0  0  0
    4.4875   -1.9733    0.0000 C   0  0  0  0  0  0  0  0  0  0  0  0
    5.7375   -1.9733    0.0000 C   0  0  0  0  0  0  0  0  0  0  0  0
    6.3625   -3.0559    0.0000 C   0  0  0  0  0  0  0  0  0  0  0  0
    5.7375   -4.1384    0.0000 C   0  0  0  0  0  0  0  0  0  0  0  0
    4.4875   -4.1384    0.0000 C   0  0  0  0  0  0  0  0  0  0  0  0
    1.9875   -1.9733    0.0000 O   0  0  0  0  0  0  0  0  0  0  0  0
    1.9875   -4.1384    0.0000 O   0  0  0  0  0  0  0  0  0  0  0  0
    7.6125   -3.0559    0.0000 O   0  0  0  0  0  0  0  0  0  0  0  0
    6.3625   -0.8908    0.0000 O   0  0  0  0  0  0  0  0  0  0  0  0
    3.8625   -0.8908    0.0000 O   0  0  0  0  0  0  0  0  0  0  0  0
  1  2  1  0  0  0  0
  2  3  1  0  0  0  0
  3  4  2  0  0  0  0
  4  5  1  0  0  0  0
  5  6  2  0  0  0  0
  6  7  1  0  0  0  0
  2  7  2  0  0  0  0
  1  8  2  0  0  0  0
  1  9  1  0  0  0  0
  5 10  1  0  0  0  0
  4 11  1  0  0  0  0
  3 12  1  0  0  0  0
M  END
> <#>
352

> <PLATE>
LAT005

> <ROW>
H

> <COL>
5

> <COORD>
H05

> <LATID>
LAT005H05

> <Supplier>
Aldrich

> <Suplier_CAT#>
253847

> <Name>
2,3,4-Trihydroxybenzoic Acid

> <Concentration_(mM)>
2.5

> <IC50_(µM)>
inactive

> <Yeast_Active?>
-

> <Pubchem_CID>
11874

$$$$
