
  -ISIS-  08130814242D

 40 41  0  0  0  0  0  0  0  0999 V2000
    2.7215    0.3564    0.0000 C   0  0  0  0  0  0  0  0  0  0  0  0
    3.3548    0.3564    0.0000 C   0  0  0  0  0  0  0  0  0  0  0  0
    3.6715    0.9049    0.0000 C   0  0  0  0  0  0  0  0  0  0  0  0
    4.3048    0.9049    0.0000 C   0  0  3  0  0  0  0  0  0  0  0  0
    4.6215    0.3564    0.0000 C   0  0  0  0  0  0  0  0  0  0  0  0
    4.3048   -0.1920    0.0000 C   0  0  0  0  0  0  0  0  0  0  0  0
    3.6715   -0.1920    0.0000 C   0  0  0  0  0  0  0  0  0  0  0  0
    4.1948    1.5286    0.0000 C   0  0  0  0  0  0  0  0  0  0  0  0
    4.9000    1.1215    0.0000 C   0  0  0  0  0  0  0  0  0  0  0  0
    3.3548    1.4534    0.0000 C   0  0  0  0  0  0  0  0  0  0  0  0
    2.7215    1.4534    0.0000 C   0  0  0  0  0  0  0  0  0  0  0  0
    2.4048    2.0019    0.0000 C   0  0  0  0  0  0  0  0  0  0  0  0
    1.7715    2.0019    0.0000 C   0  0  0  0  0  0  0  0  0  0  0  0
    1.4548    1.4534    0.0000 C   0  0  0  0  0  0  0  0  0  0  0  0
    1.7715    0.9049    0.0000 C   0  0  0  0  0  0  0  0  0  0  0  0
    1.4548    0.3564    0.0000 C   0  0  0  0  0  0  0  0  0  0  0  0
    0.8215    0.3564    0.0000 C   0  0  0  0  0  0  0  0  0  0  0  0
    0.5048    0.9049    0.0000 C   0  0  0  0  0  0  0  0  0  0  0  0
   -0.1285    0.9049    0.0000 C   0  0  0  0  0  0  0  0  0  0  0  0
   -0.4452    1.4534    0.0000 C   0  0  0  0  0  0  0  0  0  0  0  0
   -1.0785    1.4534    0.0000 C   0  0  0  0  0  0  0  0  0  0  0  0
   -1.3952    2.0019    0.0000 C   0  0  0  0  0  0  0  0  0  0  0  0
   -1.3952    0.9049    0.0000 C   0  0  0  0  0  0  0  0  0  0  0  0
   -2.0285    0.9049    0.0000 C   0  0  0  0  0  0  0  0  0  0  0  0
   -2.3452    0.3564    0.0000 C   0  0  0  0  0  0  0  0  0  0  0  0
   -2.9785    0.3564    0.0000 C   0  0  0  0  0  0  0  0  0  0  0  0
   -3.2952   -0.1920    0.0000 C   0  0  0  0  0  0  0  0  0  0  0  0
   -3.2952    0.9049    0.0000 C   0  0  0  0  0  0  0  0  0  0  0  0
   -3.9285    0.9049    0.0000 C   0  0  0  0  0  0  0  0  0  0  0  0
   -4.2452    1.4534    0.0000 C   0  0  0  0  0  0  0  0  0  0  0  0
   -4.8785    1.4534    0.0000 C   0  0  0  0  0  0  0  0  0  0  0  0
   -5.1952    2.0019    0.0000 C   0  0  0  0  0  0  0  0  0  0  0  0
   -4.8785    2.5504    0.0000 C   0  0  0  0  0  0  0  0  0  0  0  0
   -4.2452    2.5504    0.0000 C   0  0  0  0  0  0  0  0  0  0  0  0
   -3.9285    2.0019    0.0000 C   0  0  3  0  0  0  0  0  0  0  0  0
   -3.4433    2.4090    0.0000 C   0  0  0  0  0  0  0  0  0  0  0  0
   -3.4433    1.5948    0.0000 C   0  0  0  0  0  0  0  0  0  0  0  0
   -5.1952    0.9049    0.0000 C   0  0  0  0  0  0  0  0  0  0  0  0
    1.7715   -0.1920    0.0000 C   0  0  0  0  0  0  0  0  0  0  0  0
    2.7215    2.5504    0.0000 C   0  0  0  0  0  0  0  0  0  0  0  0
  1  2  1  0  0  0  0
  2  3  2  0  0  0  0
  3  4  1  0  0  0  0
  4  5  1  0  0  0  0
  5  6  1  0  0  0  0
  6  7  1  0  0  0  0
  2  7  1  0  0  0  0
  4  8  1  0  0  0  0
  4  9  1  0  0  0  0
  3 10  1  0  0  0  0
 10 11  2  0  0  0  0
 11 12  1  0  0  0  0
 12 13  2  0  0  0  0
 13 14  1  0  0  0  0
 14 15  2  0  0  0  0
 15 16  1  0  0  0  0
 16 17  2  0  0  0  0
 17 18  1  0  0  0  0
 18 19  2  0  0  0  0
 19 20  1  0  0  0  0
 20 21  2  0  0  0  0
 21 22  1  0  0  0  0
 21 23  1  0  0  0  0
 23 24  2  0  0  0  0
 24 25  1  0  0  0  0
 25 26  2  0  0  0  0
 26 27  1  0  0  0  0
 26 28  1  0  0  0  0
 28 29  2  0  0  0  0
 29 30  1  0  0  0  0
 30 31  2  0  0  0  0
 31 32  1  0  0  0  0
 32 33  1  0  0  0  0
 33 34  1  0  0  0  0
 34 35  1  0  0  0  0
 30 35  1  0  0  0  0
 35 36  1  0  0  0  0
 35 37  1  0  0  0  0
 31 38  1  0  0  0  0
 16 39  1  0  0  0  0
 12 40  1  0  0  0  0
M  END
> <#>
451

> <PLATE>
LAT006

> <ROW>
C

> <COL>
8

> <COORD>
C08

> <LATID>
LAT006C08

> <Supplier>
Fluka

> <Suplier_CAT#>
22040

> <Name>
Beta-Carotene

> <Concentration_(mM)>
2.5

> <IC50_(µM)>
inactive

> <Yeast_Active?>
-

> <Pubchem_CID>
573

$$$$
