
  -ISIS-  08130814242D

 25 28  0  0  0  0  0  0  0  0999 V2000
    3.4625   -3.1500    0.0000 N   0  0  3  0  0  0  0  0  0  0  0  0
    2.7042   -3.4000    0.0000 C   0  0  1  0  0  0  0  0  0  0  0  0
    4.0875   -3.5917    0.0000 C   0  0  0  0  0  0  0  0  0  0  0  0
    4.8167   -3.0500    0.0000 C   0  0  0  0  0  0  0  0  0  0  0  0
    4.6000   -2.3292    0.0000 N   0  0  0  0  0  0  0  0  0  0  0  0
    2.4417   -4.1292    0.0000 C   0  0  1  0  0  0  0  0  0  0  0  0
    3.7500   -2.3292    0.0000 C   0  0  0  0  0  0  0  0  0  0  0  0
    2.0292   -2.9000    0.0000 O   0  0  0  0  0  0  0  0  0  0  0  0
    1.6292   -4.1292    0.0000 C   0  0  1  0  0  0  0  0  0  0  0  0
    1.3792   -3.3667    0.0000 C   0  0  1  0  0  0  0  0  0  0  0  0
    5.5625   -3.3750    0.0000 C   0  0  0  0  0  0  0  0  0  0  0  0
    4.1667   -4.4250    0.0000 N   0  0  0  0  0  0  0  0  0  0  0  0
    5.6542   -4.2542    0.0000 N   0  0  0  0  0  0  0  0  0  0  0  0
    6.2125   -2.8917    0.0000 N   0  0  0  0  0  0  0  0  0  0  0  0
    4.9500   -4.7750    0.0000 C   0  0  0  0  0  0  0  0  0  0  0  0
    7.6292   -2.7292    0.0000 C   0  0  0  0  0  0  0  0  0  0  0  0
    7.6167   -1.9167    0.0000 O   0  0  0  0  0  0  0  0  0  0  0  0
    8.4167   -2.9875    0.0000 C   0  0  0  0  0  0  0  0  0  0  0  0
    8.4042   -1.6542    0.0000 C   0  0  0  0  0  0  0  0  0  0  0  0
    8.8917   -2.3167    0.0000 C   0  0  0  0  0  0  0  0  0  0  0  0
    2.6917   -4.9167    0.0000 O   0  0  0  0  0  0  0  0  0  0  0  0
    6.9667   -3.2250    0.0000 C   0  0  0  0  0  0  0  0  0  0  0  0
    1.3750   -4.9167    0.0000 O   0  0  0  0  0  0  0  0  0  0  0  0
    0.6167   -3.1250    0.0000 C   0  0  0  0  0  0  0  0  0  0  0  0
    0.5917   -2.3167    0.0000 O   0  0  0  0  0  0  0  0  0  0  0  0
  2  1  1  1  0  0  0
  3  1  1  0  0  0  0
  4  3  2  0  0  0  0
  5  7  2  0  0  0  0
  6  2  1  0  0  0  0
  7  1  1  0  0  0  0
  8  2  1  0  0  0  0
  9  6  1  0  0  0  0
 10  8  1  0  0  0  0
 11  4  1  0  0  0  0
 12  3  1  0  0  0  0
 13 15  1  0  0  0  0
 14 11  1  0  0  0  0
 15 12  2  0  0  0  0
 16 22  1  0  0  0  0
 17 16  1  0  0  0  0
 18 16  2  0  0  0  0
 19 17  1  0  0  0  0
 20 18  1  0  0  0  0
  6 21  1  6  0  0  0
 22 14  1  0  0  0  0
  9 23  1  6  0  0  0
 10 24  1  1  0  0  0
 25 24  1  0  0  0  0
  4  5  1  0  0  0  0
  9 10  1  0  0  0  0
 11 13  2  0  0  0  0
 20 19  2  0  0  0  0
M  END
> <#>
37

> <PLATE>
LAT001

> <ROW>
E

> <COL>
6

> <COORD>
E06

> <LATID>
LAT001E06

> <Supplier>
Microsource

> <Suplier_CAT#>
01501207

> <Name>
Kinetin Riboside

> <Concentration_(mM)>
2.5

> <IC50_(µM)>
11

> <Yeast_Active?>
-

> <Pubchem_CID>
3832

$$$$
