
  -ISIS-  08130814242D

 20 22  0  0  0  0  0  0  0  0999 V2000
   -1.9333    1.9625    0.0000 C   0  0  0  0  0  0  0  0  0  0  0  0
   -2.4333    1.2458    0.0000 O   0  0  0  0  0  0  0  0  0  0  0  0
   -1.0500    1.9625    0.0000 C   0  0  0  0  0  0  0  0  0  0  0  0
   -2.4333    2.6625    0.0000 C   0  0  0  0  0  0  0  0  0  0  0  0
   -3.2708    1.5208    0.0000 C   0  0  0  0  0  0  0  0  0  0  0  0
   -3.2708    2.4000    0.0000 C   0  0  0  0  0  0  0  0  0  0  0  0
    0.2542    1.2000    0.0000 N   0  0  0  0  0  0  0  0  0  0  0  0
   -0.6125    1.2000    0.0000 N   0  0  0  0  0  0  0  0  0  0  0  0
   -0.6125    2.7208    0.0000 O   0  0  0  0  0  0  0  0  0  0  0  0
    2.9000    1.2000    0.0000 N   0  0  0  0  0  0  0  0  0  0  0  0
    0.7000    0.4458    0.0000 C   0  0  0  0  0  0  0  0  0  0  0  0
    1.5792    0.4458    0.0000 C   0  0  0  0  0  0  0  0  0  0  0  0
    2.0167    1.2000    0.0000 C   0  0  0  0  0  0  0  0  0  0  0  0
   -4.0333    1.0833    0.0000 C   0  0  0  0  0  0  0  0  0  0  0  0
   -4.0333    2.8458    0.0000 C   0  0  0  0  0  0  0  0  0  0  0  0
    3.3500    0.4458    0.0000 C   0  0  0  0  0  0  0  0  0  0  0  0
    2.0167   -0.3292    0.0000 C   0  0  0  0  0  0  0  0  0  0  0  0
    2.9000   -0.3292    0.0000 C   0  0  0  0  0  0  0  0  0  0  0  0
   -4.7958    1.5208    0.0000 C   0  0  0  0  0  0  0  0  0  0  0  0
   -4.7958    2.4000    0.0000 C   0  0  0  0  0  0  0  0  0  0  0  0
  2  1  1  0  0  0  0
  3  1  1  0  0  0  0
  4  1  2  0  0  0  0
  5  2  1  0  0  0  0
  6  4  1  0  0  0  0
  7  8  1  0  0  0  0
  8  3  1  0  0  0  0
  9  3  2  0  0  0  0
 10 13  1  0  0  0  0
 11  7  2  0  0  0  0
 12 11  1  0  0  0  0
 13 12  2  0  0  0  0
 14  5  1  0  0  0  0
 15  6  1  0  0  0  0
 16 18  1  0  0  0  0
 17 12  1  0  0  0  0
 18 17  2  0  0  0  0
 19 14  2  0  0  0  0
 20 15  2  0  0  0  0
  5  6  2  0  0  0  0
 20 19  1  0  0  0  0
 10 16  2  0  0  0  0
M  END
> <#>
1876

> <PLATE>
LAT024

> <ROW>
D

> <COL>
6

> <COORD>
D06

> <LATID>
LAT024D06

> <Supplier>
Pharmeks

> <Suplier_CAT#>
PHAR046141

> <Name>
Novel

> <Concentration_(mM)>
2.5

> <IC50_(µM)>
100

> <Yeast_Active?>
-

> <Pubchem_CID>
948598

$$$$
