
  -ISIS-  08130814242D

 23 25  0  0  0  0  0  0  0  0999 V2000
   -0.9333    0.8625    0.0000 S   0  0  3  0  0  0  0  0  0  0  0  0
   -1.8125    0.8625    0.0000 C   0  0  0  0  0  0  0  0  0  0  0  0
   -0.0500    0.8625    0.0000 N   0  0  3  0  0  0  0  0  0  0  0  0
   -2.2500    0.1000    0.0000 C   0  0  0  0  0  0  0  0  0  0  0  0
    1.7042    0.8625    0.0000 N   0  0  3  0  0  0  0  0  0  0  0  0
   -0.9333   -0.0167    0.0000 O   0  0  0  0  0  0  0  0  0  0  0  0
   -0.9333    1.7458    0.0000 O   0  0  0  0  0  0  0  0  0  0  0  0
   -2.2500    1.6208    0.0000 C   0  0  0  0  0  0  0  0  0  0  0  0
    0.3875    1.6208    0.0000 C   0  0  0  0  0  0  0  0  0  0  0  0
    0.3875    0.1000    0.0000 C   0  0  0  0  0  0  0  0  0  0  0  0
   -3.1333    0.1000    0.0000 C   0  0  0  0  0  0  0  0  0  0  0  0
    1.2667    0.1000    0.0000 C   0  0  0  0  0  0  0  0  0  0  0  0
    1.2667    1.6208    0.0000 C   0  0  0  0  0  0  0  0  0  0  0  0
    2.5875    0.8625    0.0000 C   0  0  0  0  0  0  0  0  0  0  0  0
   -3.5708    0.8625    0.0000 C   0  0  0  0  0  0  0  0  0  0  0  0
   -1.8208   -0.6375    0.0000 Br  0  0  0  0  0  0  0  0  0  0  0  0
   -3.1333    1.6208    0.0000 C   0  0  0  0  0  0  0  0  0  0  0  0
   -4.4458    0.8625    0.0000 Br  0  0  0  0  0  0  0  0  0  0  0  0
    3.0292    0.1000    0.0000 C   0  0  0  0  0  0  0  0  0  0  0  0
    3.0292    1.6208    0.0000 C   0  0  0  0  0  0  0  0  0  0  0  0
    3.9042    0.1000    0.0000 C   0  0  0  0  0  0  0  0  0  0  0  0
    3.9042    1.6208    0.0000 C   0  0  0  0  0  0  0  0  0  0  0  0
    4.3500    0.8625    0.0000 C   0  0  0  0  0  0  0  0  0  0  0  0
  2  1  1  0  0  0  0
  3  1  1  0  0  0  0
  4  2  2  0  0  0  0
  5 12  1  0  0  0  0
  6  1  2  0  0  0  0
  7  1  2  0  0  0  0
  8  2  1  0  0  0  0
  9  3  1  0  0  0  0
 10  3  1  0  0  0  0
 11  4  1  0  0  0  0
 12 10  1  0  0  0  0
 13  9  1  0  0  0  0
 14  5  1  0  0  0  0
 15 17  1  0  0  0  0
 16  4  1  0  0  0  0
 17  8  2  0  0  0  0
 18 15  1  0  0  0  0
 19 14  2  0  0  0  0
 20 14  1  0  0  0  0
 21 19  1  0  0  0  0
 22 20  2  0  0  0  0
 23 22  1  0  0  0  0
 13  5  1  0  0  0  0
 11 15  2  0  0  0  0
 21 23  2  0  0  0  0
M  END
> <#>
1927

> <PLATE>
LAT025

> <ROW>
G

> <COL>
2

> <COORD>
G02

> <LATID>
LAT025G02

> <Supplier>
Chembridge

> <Suplier_CAT#>
5611583

> <Name>
Novel

> <Concentration_(mM)>
2.5

> <IC50_(µM)>
inactive

> <Yeast_Active?>
-

> <Pubchem_CID>
1351438

$$$$
