
  -ISIS-  08130814242D

 34 38  0  0  0  0  0  0  0  0999 V2000
    2.6167   -0.7167    0.0000 C   0  0  0  0  0  0  0  0  0  0  0  0
    3.9292   -0.7167    0.0000 C   0  0  0  0  0  0  0  0  0  0  0  0
    3.2750   -1.0917    0.0000 C   0  0  3  0  0  0  0  0  0  0  0  0
    2.6167    0.0375    0.0000 C   0  0  0  0  0  0  0  0  0  0  0  0
    3.9292    0.0375    0.0000 C   0  0  0  0  0  0  0  0  0  0  0  0
    3.2750   -1.8417    0.0000 C   0  0  0  0  0  0  0  0  0  0  0  0
    3.5042   -4.3667    0.0000 N   0  3  0  0  0  0  0  0  0  0  0  0
    2.9000   -2.9917    0.0000 C   0  0  0  0  0  0  0  0  0  0  0  0
    3.2750    0.4208    0.0000 O   0  0  0  0  0  0  0  0  0  0  0  0
    1.9667   -1.0917    0.0000 C   0  0  0  0  0  0  0  0  0  0  0  0
    4.5792   -1.0917    0.0000 C   0  0  0  0  0  0  0  0  0  0  0  0
    2.6667   -2.2792    0.0000 O   0  0  0  0  0  0  0  0  0  0  0  0
    2.4542   -3.6042    0.0000 C   0  0  0  0  0  0  0  0  0  0  0  0
    2.7625   -4.2875    0.0000 C   0  0  0  0  0  0  0  0  0  0  0  0
    3.8792   -2.2792    0.0000 C   0  0  0  0  0  0  0  0  0  0  0  0
    3.6500   -2.9917    0.0000 C   0  0  0  0  0  0  0  0  0  0  0  0
    4.5792    0.4208    0.0000 C   0  0  0  0  0  0  0  0  0  0  0  0
    1.9667    0.4208    0.0000 C   0  0  0  0  0  0  0  0  0  0  0  0
    1.3167    0.0375    0.0000 C   0  0  3  0  0  0  0  0  0  0  0  0
    5.2292    0.0375    0.0000 C   0  0  3  0  0  0  0  0  0  0  0  0
    5.2292   -0.7167    0.0000 C   0  0  0  0  0  0  0  0  0  0  0  0
    1.3167   -0.7167    0.0000 C   0  0  0  0  0  0  0  0  0  0  0  0
    3.8167   -5.0500    0.0000 O   0  5  0  0  0  0  0  0  0  0  0  0
    3.9500   -3.7542    0.0000 O   0  0  0  0  0  0  0  0  0  0  0  0
    1.9667   -1.8417    0.0000 O   0  0  0  0  0  0  0  0  0  0  0  0
    4.5792   -1.8417    0.0000 O   0  0  0  0  0  0  0  0  0  0  0  0
    1.7125   -3.5250    0.0000 C   0  0  0  0  0  0  0  0  0  0  0  0
    2.3167   -4.8917    0.0000 C   0  0  0  0  0  0  0  0  0  0  0  0
    0.6667    0.4125    0.0000 C   0  0  0  0  0  0  0  0  0  0  0  0
    0.6667   -0.3375    0.0000 C   0  0  0  0  0  0  0  0  0  0  0  0
    5.8792    0.4125    0.0000 C   0  0  0  0  0  0  0  0  0  0  0  0
    4.8542    0.6875    0.0000 C   0  0  0  0  0  0  0  0  0  0  0  0
    1.2667   -4.1292    0.0000 C   0  0  0  0  0  0  0  0  0  0  0  0
    1.5792   -4.8167    0.0000 C   0  0  0  0  0  0  0  0  0  0  0  0
  2  3  1  0  0  0  0
  3  1  1  0  0  0  0
  4  1  2  0  0  0  0
  5  9  1  0  0  0  0
  6  3  1  0  0  0  0
  7 14  1  0  0  0  0
  8 12  1  0  0  0  0
  9  4  1  0  0  0  0
 10  1  1  0  0  0  0
 11  2  1  0  0  0  0
 12  6  1  0  0  0  0
 13  8  1  0  0  0  0
 14 13  2  0  0  0  0
 15  6  2  0  0  0  0
 16 15  1  0  0  0  0
 17  5  1  0  0  0  0
 18  4  1  0  0  0  0
 19 22  1  0  0  0  0
 20 17  1  0  0  0  0
 21 11  1  0  0  0  0
 22 10  1  0  0  0  0
 23  7  1  0  0  0  0
 24  7  2  0  0  0  0
 25 10  2  0  0  0  0
 26 11  2  0  0  0  0
 27 13  1  0  0  0  0
 28 14  1  0  0  0  0
 29 19  1  0  0  0  0
 30 19  1  0  0  0  0
 31 20  1  0  0  0  0
 32 20  1  0  0  0  0
 33 27  2  0  0  0  0
 34 33  1  0  0  0  0
 18 19  1  0  0  0  0
  2  5  2  0  0  0  0
  8 16  2  0  0  0  0
 21 20  1  0  0  0  0
 34 28  2  0  0  0  0
M  CHG  2   7   1  23  -1
M  END
> <#>
1063

> <PLATE>
LAT014

> <ROW>
G

> <COL>
4

> <COORD>
G04

> <LATID>
LAT014G04

> <Supplier>
Chembridge

> <Suplier_CAT#>
5540657

> <Name>
Novel

> <Sec_Name>
159_H04

> <Concentration_(mM)>
2.5

> <IC50_(µM)>
inactive

> <Yeast_Active?>
-

> <Pubchem_CID>
2851113

$$$$
