
  -ISIS-  08130814242D

 24 26  0  0  0  0  0  0  0  0999 V2000
   -1.8000    0.0000    0.0000 C   0  0  0  0  0  0  0  0  0  0  0  0
   -2.6125   -0.4667    0.0000 N   0  0  3  0  0  0  0  0  0  0  0  0
   -1.8000    0.9458    0.0000 N   0  0  3  0  0  0  0  0  0  0  0  0
   -3.4208    0.0000    0.0000 C   0  0  0  0  0  0  0  0  0  0  0  0
   -3.4208    0.9458    0.0000 C   0  0  0  0  0  0  0  0  0  0  0  0
   -2.6125   -1.4375    0.0000 C   0  0  0  0  0  0  0  0  0  0  0  0
   -0.9958   -0.4667    0.0000 N   0  0  0  0  0  0  0  0  0  0  0  0
   -1.7708   -1.9167    0.0000 C   0  0  0  0  0  0  0  0  0  0  0  0
   -0.8000   -1.9292    0.0000 C   0  0  0  0  0  0  0  0  0  0  0  0
   -1.7708   -2.9000    0.0000 O   0  0  0  0  0  0  0  0  0  0  0  0
   -0.3125   -2.7792    0.0000 C   0  0  0  0  0  0  0  0  0  0  0  0
   -0.3000   -1.1042    0.0000 C   0  0  0  0  0  0  0  0  0  0  0  0
   -0.9958    1.4125    0.0000 C   0  0  0  0  0  0  0  0  0  0  0  0
    1.1667   -1.9375    0.0000 C   0  0  0  0  0  0  0  0  0  0  0  0
    0.6667   -2.8000    0.0000 C   0  0  0  0  0  0  0  0  0  0  0  0
    0.6792   -1.1000    0.0000 C   0  0  0  0  0  0  0  0  0  0  0  0
   -0.1833    0.0000    0.0000 C   0  0  0  0  0  0  0  0  0  0  0  0
   -4.2333   -0.4667    0.0000 C   0  0  0  0  0  0  0  0  0  0  0  0
   -4.2333    1.4125    0.0000 C   0  0  0  0  0  0  0  0  0  0  0  0
   -0.1833    0.9458    0.0000 C   0  0  0  0  0  0  0  0  0  0  0  0
    2.1292   -1.9292    0.0000 O   0  0  0  0  0  0  0  0  0  0  0  0
   -5.0458    0.0000    0.0000 C   0  0  0  0  0  0  0  0  0  0  0  0
   -5.0458    0.9458    0.0000 C   0  0  0  0  0  0  0  0  0  0  0  0
    5.0875   -3.6292    0.0000 Br  0  0  0  0  0  0  0  0  0  0  0  0
  2  1  1  0  0  0  0
  3  1  1  0  0  0  0
  4  2  1  0  0  0  0
  5  3  1  0  0  0  0
  6  2  1  0  0  0  0
  7  1  2  0  0  0  0
  8  6  1  0  0  0  0
  9  8  1  0  0  0  0
 10  8  2  0  0  0  0
 11  9  2  0  0  0  0
 12  9  1  0  0  0  0
 13  3  1  0  0  0  0
 14 16  1  0  0  0  0
 15 11  1  0  0  0  0
 16 12  2  0  0  0  0
 17  7  1  0  0  0  0
 18  4  1  0  0  0  0
 19  5  1  0  0  0  0
 20 17  1  0  0  0  0
 21 14  1  0  0  0  0
 22 18  2  0  0  0  0
 23 19  2  0  0  0  0
  4  5  2  0  0  0  0
 20 13  1  0  0  0  0
 23 22  1  0  0  0  0
 15 14  2  0  0  0  0
M  END
> <#>
1212

> <PLATE>
LAT016

> <ROW>
D

> <COL>
3

> <COORD>
D03

> <LATID>
LAT016D03

> <Supplier>
Chembridge

> <Suplier_CAT#>
5571323

> <Name>
Novel

> <Concentration_(mM)>
2.5

> <IC50_(µM)>
inactive

> <Yeast_Active?>
-

> <Pubchem_CID>
740995

$$$$
