
  -ISIS-  08130814242D

 23 26  0  0  0  0  0  0  0  0999 V2000
   -0.2458    0.3208    0.0000 C   0  0  0  0  0  0  0  0  0  0  0  0
   -0.5000    0.6833    0.0000 N   0  0  0  0  0  0  0  0  0  0  0  0
   -0.5000   -0.0542    0.0000 N   0  0  3  0  0  0  0  0  0  0  0  0
   -0.9458    0.0833    0.0000 C   0  0  0  0  0  0  0  0  0  0  0  0
   -0.9458    0.5458    0.0000 C   0  0  0  0  0  0  0  0  0  0  0  0
    0.2167    0.3208    0.0000 C   0  0  3  0  0  0  0  0  0  0  0  0
    0.4375   -0.0917    0.0000 C   0  0  0  0  0  0  0  0  0  0  0  0
    1.1167   -0.5000    0.0000 C   0  0  0  0  0  0  0  0  0  0  0  0
    0.9000   -0.0917    0.0000 C   0  0  0  0  0  0  0  0  0  0  0  0
    0.9000   -0.9000    0.0000 C   0  0  0  0  0  0  0  0  0  0  0  0
    1.5542   -0.5792    0.0000 O   0  0  0  0  0  0  0  0  0  0  0  0
    1.2167   -1.2167    0.0000 O   0  0  0  0  0  0  0  0  0  0  0  0
    1.6375   -1.0167    0.0000 C   0  0  0  0  0  0  0  0  0  0  0  0
    0.2167   -0.4792    0.0000 C   0  0  0  0  0  0  0  0  0  0  0  0
    0.4375   -0.8792    0.0000 C   0  0  0  0  0  0  0  0  0  0  0  0
   -0.3625   -0.5000    0.0000 C   0  0  0  0  0  0  0  0  0  0  0  0
    0.4542    0.7000    0.0000 O   0  0  0  0  0  0  0  0  0  0  0  0
   -1.3208   -0.1542    0.0000 C   0  0  0  0  0  0  0  0  0  0  0  0
   -1.3208    0.7833    0.0000 C   0  0  0  0  0  0  0  0  0  0  0  0
    0.1000   -0.6000    0.0000 C   0  0  0  0  0  0  0  0  0  0  0  0
   -1.7208    0.0833    0.0000 C   0  0  0  0  0  0  0  0  0  0  0  0
   -1.7208    0.5625    0.0000 C   0  0  0  0  0  0  0  0  0  0  0  0
    0.2542   -1.0375    0.0000 C   0  0  0  0  0  0  0  0  0  0  0  0
  2  1  2  0  0  0  0
  3  1  1  0  0  0  0
  4  3  1  0  0  0  0
  5  2  1  0  0  0  0
  6  1  1  0  0  0  0
  7  6  1  0  0  0  0
  8  9  2  0  0  0  0
  9  7  1  0  0  0  0
 10 15  2  0  0  0  0
 11  8  1  0  0  0  0
 12 10  1  0  0  0  0
 13 11  1  0  0  0  0
 14  7  2  0  0  0  0
 15 14  1  0  0  0  0
 16  3  1  0  0  0  0
 17  6  1  0  0  0  0
 18  4  1  0  0  0  0
 19  5  1  0  0  0  0
 20 16  1  0  0  0  0
 21 18  2  0  0  0  0
 22 19  2  0  0  0  0
 23 20  1  0  0  0  0
  4  5  2  0  0  0  0
 21 22  1  0  0  0  0
 10  8  1  0  0  0  0
 12 13  1  0  0  0  0
M  END
> <#>
1825

> <PLATE>
LAT023

> <ROW>
A

> <COL>
10

> <COORD>
A10

> <LATID>
LAT023A10

> <Supplier>
Chembridge

> <Suplier_CAT#>
5655053

> <Name>
Novel

> <Sec_Name>
204_A02

> <Concentration_(mM)>
2.5

> <IC50_(µM)>
6

> <Yeast_Active?>
-

> <Pubchem_CID>
628206

$$$$
