
  -ISIS-  08130814242D

 20 22  0  0  0  0  0  0  0  0999 V2000
    2.4875   -0.7042    0.0000 N   0  0  0  0  0  0  0  0  0  0  0  0
    2.4875   -1.9875    0.0000 N   0  0  3  0  0  0  0  0  0  0  0  0
    2.9500   -1.3500    0.0000 C   0  0  0  0  0  0  0  0  0  0  0  0
    1.7292   -0.9500    0.0000 C   0  0  0  0  0  0  0  0  0  0  0  0
    1.7292   -1.7500    0.0000 C   0  0  0  0  0  0  0  0  0  0  0  0
    1.0500   -0.5500    0.0000 C   0  0  0  0  0  0  0  0  0  0  0  0
   -0.3708   -0.5292    0.0000 N   0  0  0  0  0  0  0  0  0  0  0  0
    1.0500   -2.1500    0.0000 C   0  0  0  0  0  0  0  0  0  0  0  0
   -0.3958    0.2708    0.0000 C   0  0  0  0  0  0  0  0  0  0  0  0
    0.3500   -0.9500    0.0000 C   0  0  0  0  0  0  0  0  0  0  0  0
   -1.0708    0.6708    0.0000 C   0  0  0  0  0  0  0  0  0  0  0  0
    0.3500   -1.7500    0.0000 C   0  0  0  0  0  0  0  0  0  0  0  0
    2.7667   -2.7500    0.0000 C   0  0  0  0  0  0  0  0  0  0  0  0
   -2.4708    1.4708    0.0000 C   0  0  0  0  0  0  0  0  0  0  0  0
    3.7500   -1.3667    0.0000 C   0  0  0  0  0  0  0  0  0  0  0  0
   -1.0708    1.4708    0.0000 C   0  0  0  0  0  0  0  0  0  0  0  0
   -1.7708    0.2708    0.0000 C   0  0  0  0  0  0  0  0  0  0  0  0
   -1.7708    1.8708    0.0000 C   0  0  0  0  0  0  0  0  0  0  0  0
   -2.4708    0.6708    0.0000 C   0  0  0  0  0  0  0  0  0  0  0  0
   -3.1708    1.8958    0.0000 O   0  0  0  0  0  0  0  0  0  0  0  0
  2  3  1  0  0  0  0
  3  1  2  0  0  0  0
  4  1  1  0  0  0  0
  5  4  2  0  0  0  0
  6  4  1  0  0  0  0
  7 10  1  0  0  0  0
  8  5  1  0  0  0  0
  9  7  2  0  0  0  0
 10  6  2  0  0  0  0
 11  9  1  0  0  0  0
 12 10  1  0  0  0  0
 13  2  1  0  0  0  0
 14 19  2  0  0  0  0
 15  3  1  0  0  0  0
 16 11  1  0  0  0  0
 17 11  2  0  0  0  0
 18 16  2  0  0  0  0
 19 17  1  0  0  0  0
 20 14  1  0  0  0  0
  5  2  1  0  0  0  0
  8 12  2  0  0  0  0
 14 18  1  0  0  0  0
M  END
> <#>
2068

> <PLATE>
LAT026

> <ROW>
D

> <COL>
10

> <COORD>
D10

> <LATID>
LAT026D10

> <Supplier>
Chembridge

> <Suplier_CAT#>
5653223

> <Sec_Name>
202_B03

> <Concentration_(mM)>
2.5

> <IC50_(µM)>
inactive

> <Yeast_Active?>
-

> <Pubchem_CID>
NULL

$$$$
