
  -ISIS-  08130814242D

 32 35  0  0  0  0  0  0  0  0999 V2000
    4.3167   -2.8792    0.0000 N   0  0  3  0  0  0  0  0  0  0  0  0
    3.6542   -2.3917    0.0000 C   0  0  0  0  0  0  0  0  0  0  0  0
    3.9042   -1.6125    0.0000 N   0  0  0  0  0  0  0  0  0  0  0  0
    4.9917   -2.3917    0.0000 C   0  0  0  0  0  0  0  0  0  0  0  0
    4.7292   -1.6125    0.0000 N   0  0  0  0  0  0  0  0  0  0  0  0
    4.3250   -3.7042    0.0000 C   0  0  0  0  0  0  0  0  0  0  0  0
    5.7750   -2.6500    0.0000 S   0  0  0  0  0  0  0  0  0  0  0  0
    3.6125   -4.1125    0.0000 C   0  0  0  0  0  0  0  0  0  0  0  0
    3.6125   -4.9292    0.0000 C   0  0  0  0  0  0  0  0  0  0  0  0
    7.1667   -2.3542    0.0000 C   0  0  0  0  0  0  0  0  0  0  0  0
    2.8750   -2.6500    0.0000 C   0  0  0  0  0  0  0  0  0  0  0  0
    5.0292   -4.1042    0.0000 C   0  0  0  0  0  0  0  0  0  0  0  0
    7.7875   -1.8000    0.0000 N   0  0  0  0  0  0  0  0  0  0  0  0
    4.3250   -5.3417    0.0000 C   0  0  0  0  0  0  0  0  0  0  0  0
    7.3417   -3.1542    0.0000 O   0  0  0  0  0  0  0  0  0  0  0  0
    5.0417   -4.9250    0.0000 C   0  0  0  0  0  0  0  0  0  0  0  0
    6.3875   -2.1000    0.0000 C   0  0  0  0  0  0  0  0  0  0  0  0
    8.5667   -2.0542    0.0000 C   0  0  0  0  0  0  0  0  0  0  0  0
    9.1792   -1.5042    0.0000 C   0  0  0  0  0  0  0  0  0  0  0  0
   10.4042   -0.4000    0.0000 C   0  0  0  0  0  0  0  0  0  0  0  0
    9.9667   -1.7625    0.0000 C   0  0  0  0  0  0  0  0  0  0  0  0
    9.0042   -0.7000    0.0000 C   0  0  0  0  0  0  0  0  0  0  0  0
    9.6167   -0.1417    0.0000 C   0  0  0  0  0  0  0  0  0  0  0  0
   10.5792   -1.2042    0.0000 C   0  0  0  0  0  0  0  0  0  0  0  0
    2.9000   -5.3417    0.0000 C   0  0  0  0  0  0  0  0  0  0  0  0
    2.7042   -3.4542    0.0000 C   0  0  0  0  0  0  0  0  0  0  0  0
    2.2542   -2.0917    0.0000 C   0  0  0  0  0  0  0  0  0  0  0  0
    4.3292   -6.1667    0.0000 C   0  0  0  0  0  0  0  0  0  0  0  0
   11.0167    0.1500    0.0000 C   0  0  0  0  0  0  0  0  0  0  0  0
    1.4750   -2.3500    0.0000 C   0  0  0  0  0  0  0  0  0  0  0  0
    1.9167   -3.7042    0.0000 C   0  0  0  0  0  0  0  0  0  0  0  0
    1.3042   -3.1542    0.0000 C   0  0  0  0  0  0  0  0  0  0  0  0
  2  1  1  0  0  0  0
  3  2  2  0  0  0  0
  4  1  1  0  0  0  0
  5  4  2  0  0  0  0
  6  1  1  0  0  0  0
  7  4  1  0  0  0  0
  8  6  2  0  0  0  0
  9  8  1  0  0  0  0
 10 17  1  0  0  0  0
 11  2  1  0  0  0  0
 12  6  1  0  0  0  0
 13 10  1  0  0  0  0
 14 16  1  0  0  0  0
 15 10  2  0  0  0  0
 16 12  2  0  0  0  0
 17  7  1  0  0  0  0
 18 13  1  0  0  0  0
 19 18  1  0  0  0  0
 20 23  1  0  0  0  0
 21 19  2  0  0  0  0
 22 19  1  0  0  0  0
 23 22  2  0  0  0  0
 24 21  1  0  0  0  0
 25  9  1  0  0  0  0
 26 11  1  0  0  0  0
 27 11  2  0  0  0  0
 28 14  1  0  0  0  0
 29 20  1  0  0  0  0
 30 27  1  0  0  0  0
 31 26  2  0  0  0  0
 32 30  2  0  0  0  0
  3  5  1  0  0  0  0
 14  9  2  0  0  0  0
 32 31  1  0  0  0  0
 20 24  2  0  0  0  0
M  END
> <#>
1738

> <PLATE>
LAT022

> <ROW>
B

> <COL>
9

> <COORD>
B09

> <LATID>
LAT022B09

> <Supplier>
Chembridge

> <Suplier_CAT#>
7747135

> <Name>
Novel

> <Concentration_(mM)>
2.5

> <IC50_(µM)>
inactive

> <Yeast_Active?>
-

> <Pubchem_CID>
1290833

$$$$
