
  -ISIS-  08130814242D

 19 20  0  0  0  0  0  0  0  0999 V2000
    3.1167   -4.2292    0.0000 C   0  0  0  0  0  0  0  0  0  0  0  0
    3.8417   -4.6417    0.0000 C   0  0  0  0  0  0  0  0  0  0  0  0
    4.5542   -4.2250    0.0000 C   0  0  0  0  0  0  0  0  0  0  0  0
    5.2792   -4.6375    0.0000 C   0  0  0  0  0  0  0  0  0  0  0  0
    3.1167   -3.3917    0.0000 C   0  0  0  0  0  0  0  0  0  0  0  0
    2.4000   -4.6417    0.0000 C   0  0  0  0  0  0  0  0  0  0  0  0
    3.8417   -5.4667    0.0000 O   0  0  0  0  0  0  0  0  0  0  0  0
    2.4000   -2.9792    0.0000 C   0  0  0  0  0  0  0  0  0  0  0  0
    5.9917   -4.2250    0.0000 C   0  0  0  0  0  0  0  0  0  0  0  0
    1.6875   -4.2292    0.0000 C   0  0  0  0  0  0  0  0  0  0  0  0
    1.6875   -3.3917    0.0000 C   0  0  0  0  0  0  0  0  0  0  0  0
    3.8375   -2.9750    0.0000 O   0  0  0  0  0  0  0  0  0  0  0  0
    7.4292   -3.3917    0.0000 C   0  0  0  0  0  0  0  0  0  0  0  0
    6.7167   -4.6375    0.0000 C   0  0  0  0  0  0  0  0  0  0  0  0
    5.9917   -3.4000    0.0000 C   0  0  0  0  0  0  0  0  0  0  0  0
    6.7042   -2.9792    0.0000 C   0  0  0  0  0  0  0  0  0  0  0  0
    7.4292   -4.2250    0.0000 C   0  0  0  0  0  0  0  0  0  0  0  0
    0.9667   -4.6417    0.0000 C   0  0  0  0  0  0  0  0  0  0  0  0
    8.1417   -2.9750    0.0000 C   0  0  0  0  0  0  0  0  0  0  0  0
  2  1  1  0  0  0  0
  3  2  1  0  0  0  0
  4  3  2  0  0  0  0
  5  1  1  0  0  0  0
  6  1  2  0  0  0  0
  7  2  2  0  0  0  0
  8  5  2  0  0  0  0
  9  4  1  0  0  0  0
 10  6  1  0  0  0  0
 11 10  2  0  0  0  0
 12  5  1  0  0  0  0
 13 16  1  0  0  0  0
 14  9  2  0  0  0  0
 15  9  1  0  0  0  0
 16 15  2  0  0  0  0
 17 14  1  0  0  0  0
 18 10  1  0  0  0  0
 19 13  1  0  0  0  0
 11  8  1  0  0  0  0
 13 17  2  0  0  0  0
M  END
> <#>
1330

> <PLATE>
LAT017

> <ROW>
B

> <COL>
8

> <COORD>
B08

> <LATID>
LAT017B08

> <Supplier>
Chembridge

> <Suplier_CAT#>
7118441

> <Name>
Novel

> <Concentration_(mM)>
2.5

> <IC50_(µM)>
95

> <Yeast_Active?>
-

> <Pubchem_CID>
2927265

$$$$
