
  -ISIS-  08130814242D

 22 24  0  0  0  0  0  0  0  0999 V2000
    1.9667   -2.1167    0.0000 C   0  0  0  0  0  0  0  0  0  0  0  0
    3.2667   -2.1167    0.0000 N   0  0  0  0  0  0  0  0  0  0  0  0
    2.6167   -2.4875    0.0000 N   0  0  0  0  0  0  0  0  0  0  0  0
    4.5667   -2.1167    0.0000 C   0  0  0  0  0  0  0  0  0  0  0  0
    4.5667   -1.3667    0.0000 C   0  0  0  0  0  0  0  0  0  0  0  0
    3.9167   -2.4875    0.0000 C   0  0  0  0  0  0  0  0  0  0  0  0
    5.2167   -0.9875    0.0000 C   0  0  0  0  0  0  0  0  0  0  0  0
    1.3167   -2.4875    0.0000 C   0  0  0  0  0  0  0  0  0  0  0  0
    1.3167   -3.2500    0.0000 N   0  0  0  0  0  0  0  0  0  0  0  0
    1.9667   -1.3667    0.0000 O   0  0  0  0  0  0  0  0  0  0  0  0
    5.8667   -1.3667    0.0000 C   0  0  0  0  0  0  0  0  0  0  0  0
    5.2167   -2.4875    0.0000 C   0  0  0  0  0  0  0  0  0  0  0  0
    5.8667   -2.1167    0.0000 C   0  0  0  0  0  0  0  0  0  0  0  0
    5.2167   -0.2375    0.0000 C   0  0  0  0  0  0  0  0  0  0  0  0
    0.6667   -3.6167    0.0000 C   0  0  0  0  0  0  0  0  0  0  0  0
    3.9167   -3.2375    0.0000 C   0  0  0  0  0  0  0  0  0  0  0  0
    0.6667   -2.1042    0.0000 C   0  0  0  0  0  0  0  0  0  0  0  0
    6.5167   -1.0000    0.0000 C   0  0  0  0  0  0  0  0  0  0  0  0
    0.0167   -3.2500    0.0000 C   0  0  0  0  0  0  0  0  0  0  0  0
    5.8667    0.1208    0.0000 C   0  0  0  0  0  0  0  0  0  0  0  0
    6.5167   -0.2500    0.0000 C   0  0  0  0  0  0  0  0  0  0  0  0
    0.0167   -2.4875    0.0000 C   0  0  0  0  0  0  0  0  0  0  0  0
  2  3  1  0  0  0  0
  3  1  1  0  0  0  0
  4  6  1  0  0  0  0
  5  4  2  0  0  0  0
  6  2  2  0  0  0  0
  7  5  1  0  0  0  0
  8  1  1  0  0  0  0
  9  8  2  0  0  0  0
 10  1  2  0  0  0  0
 11 13  1  0  0  0  0
 12  4  1  0  0  0  0
 13 12  2  0  0  0  0
 14  7  1  0  0  0  0
 15  9  1  0  0  0  0
 16  6  1  0  0  0  0
 17  8  1  0  0  0  0
 18 11  1  0  0  0  0
 19 22  1  0  0  0  0
 20 14  1  0  0  0  0
 21 18  1  0  0  0  0
 22 17  2  0  0  0  0
 15 19  2  0  0  0  0
  7 11  2  0  0  0  0
 20 21  1  0  0  0  0
M  END
> <#>
663

> <PLATE>
LAT009

> <ROW>
G

> <COL>
4

> <COORD>
G04

> <LATID>
LAT009G04

> <Supplier>
Chembridge

> <Suplier_CAT#>
5528968

> <Name>
Novel

> <Sec_Name>
151_D11

> <Concentration_(mM)>
2.5

> <IC50_(µM)>
>100

> <Yeast_Active?>
-

> <Pubchem_CID>
2850155

$$$$
