
  -ISIS-  08130814242D

 18 19  0  0  0  0  0  0  0  0999 V2000
   15.0500    1.6708    0.0000 C   0  0  0  0  0  0  0  0  0  0  0  0
   15.8000    1.6708    0.0000 C   0  0  0  0  0  0  0  0  0  0  0  0
   16.1542    1.0208    0.0000 N   0  0  3  0  0  0  0  0  0  0  0  0
   14.6542    2.3208    0.0000 C   0  0  0  0  0  0  0  0  0  0  0  0
   14.6542    1.0208    0.0000 C   0  0  0  0  0  0  0  0  0  0  0  0
   13.9042    2.3208    0.0000 C   0  0  0  0  0  0  0  0  0  0  0  0
   16.1542    2.3208    0.0000 O   0  0  0  0  0  0  0  0  0  0  0  0
   16.9042   -0.2542    0.0000 O   0  0  0  0  0  0  0  0  0  0  0  0
   13.5500    1.6708    0.0000 C   0  0  0  0  0  0  0  0  0  0  0  0
   13.9042    1.0208    0.0000 C   0  0  0  0  0  0  0  0  0  0  0  0
   15.0500    2.9708    0.0000 O   0  0  0  0  0  0  0  0  0  0  0  0
   15.7792    0.3708    0.0000 C   0  0  0  0  0  0  0  0  0  0  0  0
   16.9042    1.0208    0.0000 C   0  0  0  0  0  0  0  0  0  0  0  0
   12.8000    1.6708    0.0000 O   0  0  0  0  0  0  0  0  0  0  0  0
   16.1542   -0.2542    0.0000 C   0  0  0  0  0  0  0  0  0  0  0  0
   17.2792    0.3708    0.0000 C   0  0  0  0  0  0  0  0  0  0  0  0
   15.8000    2.9708    0.0000 C   0  0  0  0  0  0  0  0  0  0  0  0
   12.4042    2.3208    0.0000 C   0  0  0  0  0  0  0  0  0  0  0  0
  2  1  1  0  0  0  0
  3  2  1  0  0  0  0
  4  1  2  0  0  0  0
  5  1  1  0  0  0  0
  6  4  1  0  0  0  0
  7  2  2  0  0  0  0
  8 16  1  0  0  0  0
  9 10  1  0  0  0  0
 10  5  2  0  0  0  0
 11  4  1  0  0  0  0
 12  3  1  0  0  0  0
 13  3  1  0  0  0  0
 14  9  1  0  0  0  0
 15 12  1  0  0  0  0
 16 13  1  0  0  0  0
 17 11  1  0  0  0  0
 18 14  1  0  0  0  0
  9  6  2  0  0  0  0
  8 15  1  0  0  0  0
M  END
> <#>
2015

> <PLATE>
LAT026

> <ROW>
G

> <COL>
3

> <COORD>
G03

> <LATID>
LAT026G03

> <Supplier>
Chembridge

> <Suplier_CAT#>
5664180

> <Sec_Name>
207_G04

> <Concentration_(mM)>
2.5

> <IC50_(µM)>
inactive

> <Yeast_Active?>
-

> <Pubchem_CID>
104658

$$$$
