
  -ISIS-  08130814242D

 26 28  0  0  0  0  0  0  0  0999 V2000
   -4.2708    0.1958    0.0000 N   0  3  0  0  0  0  0  0  0  0  0  0
   -0.7125    2.2333    0.0000 C   0  0  0  0  0  0  0  0  0  0  0  0
    0.1875    1.7125    0.0000 N   0  0  3  0  0  0  0  0  0  0  0  0
    1.9500    0.6958    0.0000 N   0  0  3  0  0  0  0  0  0  0  0  0
   -3.3708    0.7125    0.0000 C   0  0  0  0  0  0  0  0  0  0  0  0
    2.8500    0.1958    0.0000 C   0  0  0  0  0  0  0  0  0  0  0  0
   -1.6125    1.7333    0.0000 C   0  0  0  0  0  0  0  0  0  0  0  0
    2.8500   -0.8500    0.0000 C   0  0  0  0  0  0  0  0  0  0  0  0
   -3.3708    1.7333    0.0000 C   0  0  0  0  0  0  0  0  0  0  0  0
   -2.4958    2.2333    0.0000 C   0  0  0  0  0  0  0  0  0  0  0  0
   -2.4958    0.1958    0.0000 C   0  0  0  0  0  0  0  0  0  0  0  0
   -5.1583    0.6958    0.0000 O   0  5  0  0  0  0  0  0  0  0  0  0
   -4.2708   -0.8500    0.0000 O   0  0  0  0  0  0  0  0  0  0  0  0
    1.0667    2.2125    0.0000 C   0  0  0  0  0  0  0  0  0  0  0  0
    0.1875    0.6708    0.0000 C   0  0  0  0  0  0  0  0  0  0  0  0
    1.0667    0.1708    0.0000 C   0  0  0  0  0  0  0  0  0  0  0  0
    1.9500    1.7125    0.0000 C   0  0  0  0  0  0  0  0  0  0  0  0
   -1.6125    0.7125    0.0000 C   0  0  0  0  0  0  0  0  0  0  0  0
   -0.7125    3.2500    0.0000 O   0  0  0  0  0  0  0  0  0  0  0  0
    3.7292   -1.3500    0.0000 C   0  0  0  0  0  0  0  0  0  0  0  0
    3.7292    0.6958    0.0000 C   0  0  0  0  0  0  0  0  0  0  0  0
    1.9667   -1.3875    0.0000 C   0  0  0  0  0  0  0  0  0  0  0  0
   -4.2958    2.2333    0.0000 C   0  0  0  0  0  0  0  0  0  0  0  0
    4.6042    0.1958    0.0000 C   0  0  0  0  0  0  0  0  0  0  0  0
    4.6292   -0.8500    0.0000 C   0  0  0  0  0  0  0  0  0  0  0  0
    3.7292   -2.3667    0.0000 C   0  0  0  0  0  0  0  0  0  0  0  0
  2  7  1  0  0  0  0
  3  2  1  0  0  0  0
  4 16  1  0  0  0  0
  5  1  1  0  0  0  0
  6  4  1  0  0  0  0
  7 18  2  0  0  0  0
  8  6  1  0  0  0  0
  9  5  1  0  0  0  0
 10  9  2  0  0  0  0
 11  5  2  0  0  0  0
 12  1  1  0  0  0  0
 13  1  2  0  0  0  0
 14  3  1  0  0  0  0
 15  3  1  0  0  0  0
 16 15  1  0  0  0  0
 17 14  1  0  0  0  0
 18 11  1  0  0  0  0
 19  2  2  0  0  0  0
 20  8  2  0  0  0  0
 21  6  2  0  0  0  0
 22  8  1  0  0  0  0
 23  9  1  0  0  0  0
 24 21  1  0  0  0  0
 25 24  2  0  0  0  0
 26 20  1  0  0  0  0
  7 10  1  0  0  0  0
 17  4  1  0  0  0  0
 20 25  1  0  0  0  0
M  CHG  2   1   1  12  -1
M  END
> <#>
1838

> <PLATE>
LAT023

> <ROW>
F

> <COL>
11

> <COORD>
F11

> <LATID>
LAT023F11

> <Supplier>
Chembridge

> <Suplier_CAT#>
5690828

> <Name>
Novel

> <Sec_Name>
221_G05

> <Concentration_(mM)>
2.5

> <IC50_(µM)>
8

> <Yeast_Active?>
-

> <Pubchem_CID>
1068694

$$$$
