
  -ISIS-  08130814242D

 12 14  0  0  0  0  0  0  0  0999 V2000
    3.7833   -4.7667    0.0000 C   0  0  0  0  0  0  0  0  0  0  0  0
    4.3250   -3.7833    0.0000 C   0  0  0  0  0  0  0  0  0  0  0  0
    5.2792   -3.1083    0.0000 C   0  0  3  0  0  0  0  0  0  0  0  0
    4.9333   -4.1833    0.0000 C   0  0  3  0  0  0  0  0  0  0  0  0
    5.0375   -1.8875    0.0000 O   0  0  0  0  0  0  0  0  0  0  0  0
    6.4667   -3.8042    0.0000 C   0  0  3  0  0  0  0  0  0  0  0  0
    6.0292   -4.7333    0.0000 C   0  0  3  0  0  0  0  0  0  0  0  0
    7.1708   -4.4208    0.0000 C   0  0  0  0  0  0  0  0  0  0  0  0
    7.0917   -3.1792    0.0000 C   0  0  0  0  0  0  0  0  0  0  0  0
    7.6125   -5.1875    0.0000 O   0  0  0  0  0  0  0  0  0  0  0  0
    7.6792   -3.8125    0.0000 O   0  0  0  0  0  0  0  0  0  0  0  0
    7.1500   -2.5000    0.0000 O   0  0  0  0  0  0  0  0  0  0  0  0
  5  3  1  0  0  0  0
  3  6  1  0  0  0  0
  6  7  1  0  0  0  0
  7  4  1  0  0  0  0
  7  8  1  0  0  0  0
  1  2  1  0  0  0  0
  6  9  1  0  0  0  0
  2  3  1  0  0  0  0
  8 10  2  0  0  0  0
  1  4  1  0  0  0  0
  8 11  1  0  0  0  0
  9 11  1  0  0  0  0
  4  5  1  0  0  0  0
  9 12  2  0  0  0  0
M  END
> <#>
257

> <PLATE>
LAT004

> <ROW>
A

> <COL>
4

> <COORD>
A04

> <LATID>
LAT004A04

> <Supplier>
Sigma

> <Suplier_CAT#>
N 8784

> <Name>
Norcantharidin

> <Concentration_(mM)>
2.5

> <IC50_(µM)>
5.5

> <Yeast_Active?>
-

> <Pubchem_CID>
93004

> <Description>
Demethylated form of cantharidin with antitumor properties; potent inhibitor of the serine/threonine protein phosphatase 2A (PP2A)

$$$$
