
  -ISIS-  08130814242D

 24 26  0  0  0  0  0  0  0  0999 V2000
    4.9792    3.2333    0.0000 N   0  3  0  0  0  0  0  0  0  0  0  0
    4.2667    2.9958    0.0000 C   0  0  0  0  0  0  0  0  0  0  0  0
    4.2667    2.2458    0.0000 C   0  0  0  0  0  0  0  0  0  0  0  0
    5.4167    2.6208    0.0000 N   0  0  3  0  0  0  0  0  0  0  0  0
    4.9792    2.0208    0.0000 N   0  0  0  0  0  0  0  0  0  0  0  0
    3.6542    1.8083    0.0000 N   0  3  0  0  0  0  0  0  0  0  0  0
    3.6542    3.4333    0.0000 N   0  0  0  0  0  0  0  0  0  0  0  0
    5.2125    3.9375    0.0000 O   0  5  0  0  0  0  0  0  0  0  0  0
    6.1667    2.6208    0.0000 C   0  0  0  0  0  0  0  0  0  0  0  0
    3.7375    1.0583    0.0000 O   0  5  0  0  0  0  0  0  0  0  0  0
    2.9750    2.1083    0.0000 O   0  0  0  0  0  0  0  0  0  0  0  0
    2.4417    4.3125    0.0000 N   0  0  0  0  0  0  0  0  0  0  0  0
    6.5417    1.9708    0.0000 C   0  0  0  0  0  0  0  0  0  0  0  0
    6.5417    3.2708    0.0000 C   0  0  0  0  0  0  0  0  0  0  0  0
    2.9750    3.1333    0.0000 C   0  0  0  0  0  0  0  0  0  0  0  0
    2.3667    3.5708    0.0000 C   0  0  0  0  0  0  0  0  0  0  0  0
    7.6667    2.6208    0.0000 C   0  0  0  0  0  0  0  0  0  0  0  0
    7.2917    1.9708    0.0000 C   0  0  0  0  0  0  0  0  0  0  0  0
    7.2917    3.2708    0.0000 C   0  0  0  0  0  0  0  0  0  0  0  0
    8.4167    2.6208    0.0000 Cl  0  0  0  0  0  0  0  0  0  0  0  0
    1.8417    4.7542    0.0000 C   0  0  0  0  0  0  0  0  0  0  0  0
    1.6792    3.2708    0.0000 C   0  0  0  0  0  0  0  0  0  0  0  0
    1.1542    4.4500    0.0000 C   0  0  0  0  0  0  0  0  0  0  0  0
    1.0750    3.7083    0.0000 C   0  0  0  0  0  0  0  0  0  0  0  0
  2  1  2  0  0  0  0
  3  2  1  0  0  0  0
  4  1  1  0  0  0  0
  5  4  1  0  0  0  0
  6  3  1  0  0  0  0
  7  2  1  0  0  0  0
  8  1  1  0  0  0  0
  9  4  1  0  0  0  0
 10  6  1  0  0  0  0
 11  6  2  0  0  0  0
 12 16  2  0  0  0  0
 13  9  1  0  0  0  0
 14  9  2  0  0  0  0
 15  7  1  0  0  0  0
 16 15  1  0  0  0  0
 17 19  2  0  0  0  0
 18 13  2  0  0  0  0
 19 14  1  0  0  0  0
 20 17  1  0  0  0  0
 21 12  1  0  0  0  0
 22 16  1  0  0  0  0
 23 24  1  0  0  0  0
 24 22  2  0  0  0  0
  5  3  2  0  0  0  0
 17 18  1  0  0  0  0
 23 21  2  0  0  0  0
M  CHG  4   1   1   6   1   8  -1  10  -1
M  END
> <#>
1574

> <PLATE>
LAT020

> <ROW>
F

> <COL>
8

> <COORD>
F08

> <LATID>
LAT020F08

> <Supplier>
Chembridge

> <Suplier_CAT#>
7953485

> <Name>
Novel

> <Concentration_(mM)>
2.5

> <IC50_(µM)>
22

> <Yeast_Active?>
-

> <Pubchem_CID>
NULL

> <Comment>
What is up with this?

$$$$
