
  -ISIS-  08130814242D

 24 26  0  0  0  0  0  0  0  0999 V2000
    1.7375    1.0333    0.0000 C   0  0  0  0  0  0  0  0  0  0  0  0
    1.5542   -0.0042    0.0000 C   0  0  3  0  0  0  0  0  0  0  0  0
    0.9500    1.6833    0.0000 C   0  0  0  0  0  0  0  0  0  0  0  0
    0.5875   -0.3667    0.0000 O   0  0  0  0  0  0  0  0  0  0  0  0
   -2.6125    2.3125    0.0000 N   0  3  0  0  0  0  0  0  0  0  0  0
    2.7292    1.4125    0.0000 C   0  0  0  0  0  0  0  0  0  0  0  0
   -0.0333    1.3208    0.0000 C   0  0  0  0  0  0  0  0  0  0  0  0
    1.7875   -1.7875    0.0000 N   0  0  3  0  0  0  0  0  0  0  0  0
   -0.2208    0.3000    0.0000 C   0  0  0  0  0  0  0  0  0  0  0  0
   -1.7958    1.6333    0.0000 C   0  0  0  0  0  0  0  0  0  0  0  0
   -0.8208    1.9958    0.0000 C   0  0  0  0  0  0  0  0  0  0  0  0
   -2.4333    3.3208    0.0000 O   0  5  0  0  0  0  0  0  0  0  0  0
   -3.5833    1.9583    0.0000 O   0  0  0  0  0  0  0  0  0  0  0  0
    3.5542    0.7458    0.0000 O   0  0  0  0  0  0  0  0  0  0  0  0
   -1.2000   -0.0292    0.0000 C   0  0  0  0  0  0  0  0  0  0  0  0
   -1.9958    0.6333    0.0000 C   0  0  0  0  0  0  0  0  0  0  0  0
    3.0875   -3.4167    0.0000 O   0  0  0  0  0  0  0  0  0  0  0  0
    2.8875    2.4708    0.0000 C   0  0  3  0  0  0  0  0  0  0  0  0
    1.4167   -2.7500    0.0000 C   0  0  0  0  0  0  0  0  0  0  0  0
    2.8042   -1.6500    0.0000 C   0  0  0  0  0  0  0  0  0  0  0  0
    3.4542   -2.4500    0.0000 C   0  0  0  0  0  0  0  0  0  0  0  0
    2.0542   -3.5667    0.0000 C   0  0  0  0  0  0  0  0  0  0  0  0
    2.0167    3.1458    0.0000 C   0  0  0  0  0  0  0  0  0  0  0  0
    3.8792    2.8458    0.0000 C   0  0  0  0  0  0  0  0  0  0  0  0
  2  1  1  0  0  0  0
  3  1  2  0  0  0  0
  4  2  1  0  0  0  0
  5 10  1  0  0  0  0
  6  1  1  0  0  0  0
  7  3  1  0  0  0  0
  8  2  1  0  0  0  0
  9  7  2  0  0  0  0
 10 11  2  0  0  0  0
 11  7  1  0  0  0  0
 12  5  1  0  0  0  0
 13  5  2  0  0  0  0
 14  6  2  0  0  0  0
 15  9  1  0  0  0  0
 16 10  1  0  0  0  0
 17 21  1  0  0  0  0
 18  6  1  0  0  0  0
 19  8  1  0  0  0  0
 20  8  1  0  0  0  0
 21 20  1  0  0  0  0
 22 19  1  0  0  0  0
 23 18  1  0  0  0  0
 24 18  1  0  0  0  0
  9  4  1  0  0  0  0
 17 22  1  0  0  0  0
 15 16  2  0  0  0  0
M  CHG  2   5   1  12  -1
M  END
> <#>
943

> <PLATE>
LAT012

> <ROW>
G

> <COL>
9

> <COORD>
G09

> <LATID>
LAT012G09

> <Supplier>
Chembridge

> <Suplier_CAT#>
5729596

> <Name>
Novel

> <Sec_Name>
231_C08

> <Concentration_(mM)>
2.5

> <IC50_(µM)>
100

> <Yeast_Active?>
-

> <Pubchem_CID>
618774

$$$$
