
  -ISIS-  08130814242D

 21 22  0  0  0  0  0  0  0  0999 V2000
    8.0167    5.2042    0.0000 C   0  0  3  0  0  0  0  0  0  0  0  0
   10.0542    1.6833    0.0000 C   0  0  0  0  0  0  0  0  0  0  0  0
    2.1167   -5.2375    0.0000 C   0  0  0  0  0  0  0  0  0  0  0  0
    8.0625   -1.7417    0.0000 C   0  0  0  0  0  0  0  0  0  0  0  0
    4.0667   -1.7625    0.0000 N   0  0  0  0  0  0  0  0  0  0  0  0
    4.2125   -8.6625    0.0000 S   0  0  0  0  0  0  0  0  0  0  0  0
   -1.8958   -5.2375    0.0000 N   0  0  0  0  0  0  0  0  0  0  0  0
  -10.0167    1.6083    0.0000 N   0  0  0  0  0  0  0  0  0  0  0  0
    5.9667    8.6625    0.0000 F   0  0  0  0  0  0  0  0  0  0  0  0
   11.4792    7.2167    0.0000 F   0  0  0  0  0  0  0  0  0  0  0  0
    4.4750    3.1583    0.0000 F   0  0  0  0  0  0  0  0  0  0  0  0
   -7.9167   -1.8250    0.0000 C   0  0  0  0  0  0  0  0  0  0  0  0
   -3.9208   -1.8042    0.0000 C   0  0  0  0  0  0  0  0  0  0  0  0
   14.0375    1.7458    0.0000 C   0  0  0  0  0  0  0  0  0  0  0  0
   10.0375   -5.2375    0.0000 C   0  0  0  0  0  0  0  0  0  0  0  0
  -14.0167    1.5333    0.0000 C   0  0  0  0  0  0  0  0  0  0  0  0
   -9.8917   -5.2875    0.0000 C   0  0  0  0  0  0  0  0  0  0  0  0
   16.0000   -1.7167    0.0000 C   0  0  0  0  0  0  0  0  0  0  0  0
   14.0667   -5.2167    0.0000 C   0  0  0  0  0  0  0  0  0  0  0  0
  -16.0000   -1.9500    0.0000 C   0  0  0  0  0  0  0  0  0  0  0  0
  -13.8917   -5.3625    0.0000 C   0  0  0  0  0  0  0  0  0  0  0  0
  2  1  1  0  0  0  0
  3  5  1  0  0  0  0
  4  2  1  0  0  0  0
  5  4  1  0  0  0  0
  6  3  2  0  0  0  0
  7  3  1  0  0  0  0
  8 12  2  0  0  0  0
  9  1  1  0  0  0  0
 10  1  1  0  0  0  0
 11  1  1  0  0  0  0
 12 13  1  0  0  0  0
 13  7  1  0  0  0  0
 14  2  2  0  0  0  0
 15  4  2  0  0  0  0
 16  8  1  0  0  0  0
 17 12  1  0  0  0  0
 18 14  1  0  0  0  0
 19 18  2  0  0  0  0
 20 21  1  0  0  0  0
 21 17  2  0  0  0  0
 19 15  1  0  0  0  0
 20 16  2  0  0  0  0
M  END
> <#>
1513

> <PLATE>
LAT019

> <ROW>
A

> <COL>
11

> <COORD>
A11

> <LATID>
LAT019A11

> <Supplier>
Chembridge

> <Suplier_CAT#>
7783341

> <Name>
Novel

> <Concentration_(mM)>
2.5

> <IC50_(µM)>
92

> <Yeast_Active?>
-

> <Pubchem_CID>
978005

$$$$
