
  -ISIS-  08130814242D

 22 23  0  0  0  0  0  0  0  0999 V2000
    3.2000   -0.3667    0.0000 C   0  0  0  0  0  0  0  0  0  0  0  0
    3.2000   -1.6000    0.0000 C   0  0  0  0  0  0  0  0  0  0  0  0
   -3.2000   -1.6292    0.0000 C   0  0  0  0  0  0  0  0  0  0  0  0
    1.0667    2.0833    0.0000 C   0  0  0  0  0  0  0  0  0  0  0  0
    2.1292    0.2458    0.0000 N   0  0  0  0  0  0  0  0  0  0  0  0
   -3.2000   -0.4000    0.0000 C   0  0  0  0  0  0  0  0  0  0  0  0
   -2.1458   -2.2292    0.0000 C   0  0  0  0  0  0  0  0  0  0  0  0
    4.1000   -2.4042    0.0000 S   0  0  0  0  0  0  0  0  0  0  0  0
    2.1292    1.4833    0.0000 N   0  0  0  0  0  0  0  0  0  0  0  0
   -2.1458    0.2208    0.0000 C   0  0  0  0  0  0  0  0  0  0  0  0
   -1.0833   -1.6292    0.0000 C   0  0  0  0  0  0  0  0  0  0  0  0
   -1.0833   -0.4000    0.0000 C   0  0  0  0  0  0  0  0  0  0  0  0
    4.2500    0.2458    0.0000 O   0  0  0  0  0  0  0  0  0  0  0  0
    2.1292   -2.2042    0.0000 C   0  0  0  0  0  0  0  0  0  0  0  0
    3.6042   -3.5292    0.0000 C   0  0  0  0  0  0  0  0  0  0  0  0
    1.0667    3.3208    0.0000 O   0  0  0  0  0  0  0  0  0  0  0  0
    2.3667   -3.4042    0.0000 C   0  0  0  0  0  0  0  0  0  0  0  0
    0.0000    0.2458    0.0000 O   0  0  0  0  0  0  0  0  0  0  0  0
    0.0000    1.4833    0.0000 C   0  0  0  0  0  0  0  0  0  0  0  0
   -4.2833   -2.2500    0.0000 Cl  0  0  0  0  0  0  0  0  0  0  0  0
   -2.1458   -3.4667    0.0000 C   0  0  0  0  0  0  0  0  0  0  0  0
   -4.2833    0.2458    0.0000 C   0  0  0  0  0  0  0  0  0  0  0  0
  2  1  1  0  0  0  0
  3  7  2  0  0  0  0
  4  9  1  0  0  0  0
  5  1  1  0  0  0  0
  6 10  2  0  0  0  0
  7 11  1  0  0  0  0
  8  2  1  0  0  0  0
  9  5  1  0  0  0  0
 10 12  1  0  0  0  0
 11 12  2  0  0  0  0
 12 18  1  0  0  0  0
 13  1  2  0  0  0  0
 14  2  2  0  0  0  0
 15  8  1  0  0  0  0
 16  4  2  0  0  0  0
 17 14  1  0  0  0  0
 18 19  1  0  0  0  0
 19  4  1  0  0  0  0
 20  3  1  0  0  0  0
 21  7  1  0  0  0  0
 22  6  1  0  0  0  0
 15 17  2  0  0  0  0
  6  3  1  0  0  0  0
M  END
> <#>
788

> <PLATE>
LAT010

> <ROW>
D

> <COL>
10

> <COORD>
D10

> <LATID>
LAT010D10

> <Supplier>
Chembridge

> <Suplier_CAT#>
5625283

> <Name>
Novel

> <Sec_Name>
189_F07

> <Concentration_(mM)>
2.5

> <IC50_(µM)>
25

> <Yeast_Active?>
-

> <Pubchem_CID>
732369

$$$$
