
  -ISIS-  08130814242D

 23 24  0  0  0  0  0  0  0  0999 V2000
    8.3042    1.4125    0.0000 S   0  0  3  0  0  0  0  0  0  0  0  0
    8.8375    0.8833    0.0000 N   0  0  3  0  0  0  0  0  0  0  0  0
    9.5625    1.0750    0.0000 C   0  0  0  0  0  0  0  0  0  0  0  0
   10.0917    0.5458    0.0000 C   0  0  0  0  0  0  0  0  0  0  0  0
    8.8792    1.8958    0.0000 O   0  0  0  0  0  0  0  0  0  0  0  0
    7.8792    2.0250    0.0000 O   0  0  0  0  0  0  0  0  0  0  0  0
    7.6542    1.0375    0.0000 C   0  0  0  0  0  0  0  0  0  0  0  0
   10.8167    0.7458    0.0000 N   0  0  0  0  0  0  0  0  0  0  0  0
   12.6042   -0.1250    0.0000 N   0  0  0  0  0  0  0  0  0  0  0  0
    9.9000   -0.1792    0.0000 O   0  0  0  0  0  0  0  0  0  0  0  0
   12.0750    0.4083    0.0000 C   0  0  0  0  0  0  0  0  0  0  0  0
   11.3500    0.2083    0.0000 C   0  0  0  0  0  0  0  0  0  0  0  0
    8.6417    0.1583    0.0000 C   0  0  0  0  0  0  0  0  0  0  0  0
   13.3292    0.0708    0.0000 C   0  0  0  0  0  0  0  0  0  0  0  0
    7.0042    1.4125    0.0000 C   0  0  0  0  0  0  0  0  0  0  0  0
    7.6542    0.2875    0.0000 C   0  0  0  0  0  0  0  0  0  0  0  0
   12.2667    1.1333    0.0000 C   0  0  0  0  0  0  0  0  0  0  0  0
    9.1750   -0.3750    0.0000 C   0  0  0  0  0  0  0  0  0  0  0  0
   13.5167    0.7958    0.0000 C   0  0  0  0  0  0  0  0  0  0  0  0
    7.0042   -0.0875    0.0000 C   0  0  0  0  0  0  0  0  0  0  0  0
    6.3542    1.0375    0.0000 C   0  0  0  0  0  0  0  0  0  0  0  0
   12.9917    1.3208    0.0000 C   0  0  0  0  0  0  0  0  0  0  0  0
    6.3542    0.2875    0.0000 C   0  0  0  0  0  0  0  0  0  0  0  0
  2  1  1  0  0  0  0
  3  2  1  0  0  0  0
  4  3  1  0  0  0  0
  5  1  2  0  0  0  0
  6  1  2  0  0  0  0
  7  1  1  0  0  0  0
  8  4  1  0  0  0  0
  9 11  2  0  0  0  0
 10  4  2  0  0  0  0
 11 12  1  0  0  0  0
 12  8  1  0  0  0  0
 13  2  1  0  0  0  0
 14  9  1  0  0  0  0
 15  7  1  0  0  0  0
 16  7  2  0  0  0  0
 17 11  1  0  0  0  0
 18 13  1  0  0  0  0
 19 22  1  0  0  0  0
 20 16  1  0  0  0  0
 21 15  2  0  0  0  0
 22 17  2  0  0  0  0
 23 20  2  0  0  0  0
 21 23  1  0  0  0  0
 19 14  2  0  0  0  0
M  END
> <#>
1551

> <PLATE>
LAT020

> <ROW>
G

> <COL>
5

> <COORD>
G05

> <LATID>
LAT020G05

> <Supplier>
Chembridge

> <Suplier_CAT#>
9006449

> <Name>
Novel

> <Concentration_(mM)>
2.5

> <IC50_(µM)>
>100

> <Yeast_Active?>
-

> <Pubchem_CID>
2991842

$$$$
