
  -ISIS-  08130814242D

 18 19  0  0  0  0  0  0  0  0999 V2000
   -1.4833    2.1708    0.0000 S   0  0  3  0  0  0  0  0  0  0  0  0
   -1.4833    0.9458    0.0000 N   0  0  0  0  0  0  0  0  0  0  0  0
   -0.4125    0.3208    0.0000 N   0  0  0  0  0  0  0  0  0  0  0  0
   -2.7125    2.2083    0.0000 O   0  0  0  0  0  0  0  0  0  0  0  0
   -1.4625    3.4208    0.0000 O   0  0  0  0  0  0  0  0  0  0  0  0
   -0.2208    2.1708    0.0000 C   0  0  0  0  0  0  0  0  0  0  0  0
    1.7375   -3.4042    0.0000 N   0  0  0  0  0  0  0  0  0  0  0  0
   -0.4125   -0.9167    0.0000 C   0  0  0  0  0  0  0  0  0  0  0  0
    0.6500   -1.5542    0.0000 C   0  0  0  0  0  0  0  0  0  0  0  0
    0.6667   -2.7875    0.0000 C   0  0  0  0  0  0  0  0  0  0  0  0
    2.8000   -2.7875    0.0000 C   0  0  0  0  0  0  0  0  0  0  0  0
    0.3875    1.0958    0.0000 C   0  0  0  0  0  0  0  0  0  0  0  0
    0.3875    3.2458    0.0000 C   0  0  0  0  0  0  0  0  0  0  0  0
    1.7042   -0.9167    0.0000 C   0  0  0  0  0  0  0  0  0  0  0  0
    2.8000   -1.5542    0.0000 C   0  0  0  0  0  0  0  0  0  0  0  0
    1.6292    3.2208    0.0000 C   0  0  0  0  0  0  0  0  0  0  0  0
    1.6292    1.0958    0.0000 C   0  0  0  0  0  0  0  0  0  0  0  0
    2.2500    2.1500    0.0000 C   0  0  0  0  0  0  0  0  0  0  0  0
  2  1  1  0  0  0  0
  3  2  1  0  0  0  0
  4  1  2  0  0  0  0
  5  1  2  0  0  0  0
  6  1  1  0  0  0  0
  7 10  1  0  0  0  0
  8  3  2  0  0  0  0
  9  8  1  0  0  0  0
 10  9  2  0  0  0  0
 11 15  1  0  0  0  0
 12  6  2  0  0  0  0
 13  6  1  0  0  0  0
 14  9  1  0  0  0  0
 15 14  2  0  0  0  0
 16 13  2  0  0  0  0
 17 12  1  0  0  0  0
 18 16  1  0  0  0  0
 18 17  2  0  0  0  0
 11  7  2  0  0  0  0
M  END
> <#>
1630

> <PLATE>
LAT021

> <ROW>
F

> <COL>
5

> <COORD>
F05

> <LATID>
LAT021F05

> <Supplier>
Chembridge

> <Suplier_CAT#>
5111058

> <Name>
Novel

> <Concentration_(mM)>
2.5

> <IC50_(µM)>
inactive

> <Yeast_Active?>
-

> <Pubchem_CID>
796663

$$$$
