
  -ISIS-  08130814242D

 21 23  0  0  0  0  0  0  0  0999 V2000
    0.9500   -0.6375    0.0000 C   0  0  0  0  0  0  0  0  0  0  0  0
    0.2667    0.3208    0.0000 N   0  0  0  0  0  0  0  0  0  0  0  0
    0.2667   -1.5792    0.0000 S   0  0  0  0  0  0  0  0  0  0  0  0
   -0.8500   -0.0292    0.0000 C   0  0  0  0  0  0  0  0  0  0  0  0
   -0.8500   -1.2167    0.0000 C   0  0  0  0  0  0  0  0  0  0  0  0
    4.5042   -0.6542    0.0000 N   0  0  0  0  0  0  0  0  0  0  0  0
    3.9042   -1.6792    0.0000 C   0  0  0  0  0  0  0  0  0  0  0  0
    3.9042    0.3833    0.0000 C   0  0  0  0  0  0  0  0  0  0  0  0
    2.1292   -0.6542    0.0000 S   0  0  0  0  0  0  0  0  0  0  0  0
    4.5042    1.4000    0.0000 C   0  0  0  0  0  0  0  0  0  0  0  0
    4.5042   -2.7000    0.0000 O   0  0  0  0  0  0  0  0  0  0  0  0
    2.7292   -1.6792    0.0000 C   0  0  0  0  0  0  0  0  0  0  0  0
    5.6875    1.4000    0.0000 Br  0  0  0  0  0  0  0  0  0  0  0  0
   -1.8708    0.5625    0.0000 C   0  0  0  0  0  0  0  0  0  0  0  0
   -1.8708   -1.8167    0.0000 C   0  0  0  0  0  0  0  0  0  0  0  0
    2.7292    0.3833    0.0000 C   0  0  0  0  0  0  0  0  0  0  0  0
    3.9042    2.4208    0.0000 C   0  0  0  0  0  0  0  0  0  0  0  0
   -2.8958   -0.0292    0.0000 C   0  0  0  0  0  0  0  0  0  0  0  0
   -2.8958   -1.2167    0.0000 C   0  0  0  0  0  0  0  0  0  0  0  0
    2.1292    1.4000    0.0000 C   0  0  0  0  0  0  0  0  0  0  0  0
    2.7292    2.4208    0.0000 C   0  0  0  0  0  0  0  0  0  0  0  0
  2  1  2  0  0  0  0
  3  1  1  0  0  0  0
  4  2  1  0  0  0  0
  5  3  1  0  0  0  0
  6  7  1  0  0  0  0
  7 12  1  0  0  0  0
  8  6  1  0  0  0  0
  9  1  1  0  0  0  0
 10  8  1  0  0  0  0
 11  7  2  0  0  0  0
 12  9  1  0  0  0  0
 13 10  1  0  0  0  0
 14  4  1  0  0  0  0
 15  5  1  0  0  0  0
 16  8  2  0  0  0  0
 17 10  2  0  0  0  0
 18 14  2  0  0  0  0
 19 15  2  0  0  0  0
 20 16  1  0  0  0  0
 21 20  2  0  0  0  0
  4  5  2  0  0  0  0
 18 19  1  0  0  0  0
 17 21  1  0  0  0  0
M  END
> <#>
614

> <PLATE>
LAT008

> <ROW>
F

> <COL>
8

> <COORD>
F08

> <LATID>
LAT008F08

> <Supplier>
Chembridge

> <Suplier_CAT#>
5533616

> <Name>
Novel

> <Sec_Name>
155_G05

> <Concentration_(mM)>
2.5

> <IC50_(µM)>
>100

> <Yeast_Active?>
-

> <Pubchem_CID>
1091179

$$$$
