
  -ISIS-  08130814242D

 27 30  0  0  0  0  0  0  0  0999 V2000
   -1.8500   -1.0167    0.0000 C   0  0  0  0  0  0  0  0  0  0  0  0
   -2.4333   -0.6875    0.0000 C   0  0  0  0  0  0  0  0  0  0  0  0
   -1.8500   -1.6792    0.0000 C   0  0  0  0  0  0  0  0  0  0  0  0
   -0.6958   -1.0167    0.0000 C   0  0  0  0  0  0  0  0  0  0  0  0
   -1.2708   -0.6875    0.0000 C   0  0  0  0  0  0  0  0  0  0  0  0
   -2.4333   -2.0042    0.0000 C   0  0  0  0  0  0  0  0  0  0  0  0
   -0.1125   -0.6875    0.0000 C   0  0  0  0  0  0  0  0  0  0  0  0
   -3.0125   -1.0167    0.0000 C   0  0  0  0  0  0  0  0  0  0  0  0
   -3.0125   -1.6792    0.0000 C   0  0  0  0  0  0  0  0  0  0  0  0
   -0.1125   -0.0292    0.0000 N   0  0  0  0  0  0  0  0  0  0  0  0
   -0.6958   -1.6792    0.0000 C   0  0  0  0  0  0  0  0  0  0  0  0
   -1.2708   -2.0042    0.0000 C   0  0  0  0  0  0  0  0  0  0  0  0
   -2.4333   -0.0292    0.0000 O   0  0  0  0  0  0  0  0  0  0  0  0
   -2.4333   -2.6667    0.0000 O   0  0  0  0  0  0  0  0  0  0  0  0
    0.4667   -1.0167    0.0000 O   0  0  0  0  0  0  0  0  0  0  0  0
    0.4500    0.2958    0.0000 C   0  0  0  0  0  0  0  0  0  0  0  0
    0.4292    0.9333    0.0000 C   0  0  0  0  0  0  0  0  0  0  0  0
   -1.2708   -0.0292    0.0000 O   0  0  0  0  0  0  0  0  0  0  0  0
    0.9875    1.2958    0.0000 C   0  0  0  0  0  0  0  0  0  0  0  0
    0.9875    1.9458    0.0000 Cl  0  0  0  0  0  0  0  0  0  0  0  0
   -3.5958   -0.6875    0.0000 C   0  0  0  0  0  0  0  0  0  0  0  0
   -3.5958   -2.0042    0.0000 C   0  0  0  0  0  0  0  0  0  0  0  0
    1.5792    0.3208    0.0000 C   0  0  0  0  0  0  0  0  0  0  0  0
    1.0292   -0.0167    0.0000 C   0  0  0  0  0  0  0  0  0  0  0  0
    1.5542    0.9833    0.0000 C   0  0  0  0  0  0  0  0  0  0  0  0
   -4.1708   -1.0167    0.0000 C   0  0  0  0  0  0  0  0  0  0  0  0
   -4.1708   -1.6792    0.0000 C   0  0  0  0  0  0  0  0  0  0  0  0
  2  1  1  0  0  0  0
  3  1  2  0  0  0  0
  4  5  2  0  0  0  0
  5  1  1  0  0  0  0
  6  3  1  0  0  0  0
  7  4  1  0  0  0  0
  8  2  1  0  0  0  0
  9  6  1  0  0  0  0
 10  7  1  0  0  0  0
 11  4  1  0  0  0  0
 12  3  1  0  0  0  0
 13  2  2  0  0  0  0
 14  6  2  0  0  0  0
 15  7  2  0  0  0  0
 16 10  1  0  0  0  0
 17 16  1  0  0  0  0
 18  5  1  0  0  0  0
 19 17  2  0  0  0  0
 20 19  1  0  0  0  0
 21  8  1  0  0  0  0
 22  9  1  0  0  0  0
 23 24  1  0  0  0  0
 24 16  2  0  0  0  0
 25 23  2  0  0  0  0
 26 21  2  0  0  0  0
 27 22  2  0  0  0  0
 11 12  2  0  0  0  0
  8  9  2  0  0  0  0
 26 27  1  0  0  0  0
 25 19  1  0  0  0  0
M  END
> <#>
1207

> <PLATE>
LAT016

> <ROW>
G

> <COL>
2

> <COORD>
G02

> <LATID>
LAT016G02

> <Supplier>
Chembridge

> <Suplier_CAT#>
5814104

> <Name>
Novel

> <Concentration_(mM)>
2.5

> <IC50_(µM)>
inactive

> <Yeast_Active?>
-

> <Pubchem_CID>
NULL

$$$$
