
  -ISIS-  08130814242D

 34 36  0  0  0  0  0  0  0  0999 V2000
    0.3875   -2.6458    0.0000 N   0  0  0  0  0  0  0  0  0  0  0  0
    1.1000   -1.4042    0.0000 N   0  0  0  0  0  0  0  0  0  0  0  0
    1.8167   -2.6417    0.0000 C   0  0  0  0  0  0  0  0  0  0  0  0
    1.8167   -1.8167    0.0000 C   0  0  0  0  0  0  0  0  0  0  0  0
    1.1000   -3.0583    0.0000 C   0  0  0  0  0  0  0  0  0  0  0  0
    0.3875   -1.8167    0.0000 C   0  0  0  0  0  0  0  0  0  0  0  0
    2.5333   -3.0542    0.0000 N   0  0  0  0  0  0  0  0  0  0  0  0
    7.5250   -4.2875    0.0000 C   0  0  0  0  0  0  0  0  0  0  0  0
    2.5250   -1.4000    0.0000 N   0  0  0  0  0  0  0  0  0  0  0  0
    8.2375   -3.8792    0.0000 N   0  0  0  0  0  0  0  0  0  0  0  0
    3.2458   -2.6375    0.0000 C   0  0  0  0  0  0  0  0  0  0  0  0
    9.5292   -4.8750    0.0000 C   0  0  0  0  0  0  0  0  0  0  0  0
    4.6750   -2.6333    0.0000 N   0  0  3  0  0  0  0  0  0  0  0  0
    8.9500   -4.2917    0.0000 C   0  0  2  0  0  0  0  0  0  0  0  0
    6.8125   -3.8750    0.0000 C   0  0  0  0  0  0  0  0  0  0  0  0
    3.9625   -3.0458    0.0000 C   0  0  0  0  0  0  0  0  0  0  0  0
   11.0875   -3.8875    0.0000 C   0  0  0  0  0  0  0  0  0  0  0  0
    5.3917   -3.0417    0.0000 C   0  0  0  0  0  0  0  0  0  0  0  0
    7.5208   -5.1125    0.0000 O   0  0  0  0  0  0  0  0  0  0  0  0
   10.3292   -4.6583    0.0000 O   0  0  0  0  0  0  0  0  0  0  0  0
    3.2417   -1.8083    0.0000 C   0  0  0  0  0  0  0  0  0  0  0  0
   11.0875   -3.0625    0.0000 O   0  0  0  0  0  0  0  0  0  0  0  0
    1.1042   -3.8833    0.0000 N   0  0  0  0  0  0  0  0  0  0  0  0
    6.8125   -3.0458    0.0000 C   0  0  0  0  0  0  0  0  0  0  0  0
    6.0958   -4.2833    0.0000 C   0  0  0  0  0  0  0  0  0  0  0  0
    6.1042   -2.6375    0.0000 C   0  0  0  0  0  0  0  0  0  0  0  0
    5.3875   -3.8667    0.0000 C   0  0  0  0  0  0  0  0  0  0  0  0
   -0.3250   -1.4083    0.0000 N   0  0  0  0  0  0  0  0  0  0  0  0
    9.6625   -3.8792    0.0000 C   0  0  0  0  0  0  0  0  0  0  0  0
   10.3750   -4.2917    0.0000 C   0  0  0  0  0  0  0  0  0  0  0  0
    9.3167   -5.6708    0.0000 O   0  0  0  0  0  0  0  0  0  0  0  0
   11.7958   -4.3000    0.0000 O   0  0  0  0  0  0  0  0  0  0  0  0
    4.6708   -1.8083    0.0000 C   0  0  0  0  0  0  0  0  0  0  0  0
    8.5292   -5.0042    0.0000 H   0  0  0  0  0  0  0  0  0  0  0  0
  2  6  1  0  0  0  0
  3  5  2  0  0  0  0
  4  2  2  0  0  0  0
  5  1  1  0  0  0  0
  6  1  2  0  0  0  0
  7  3  1  0  0  0  0
  8 15  1  0  0  0  0
  9  4  1  0  0  0  0
 10  8  1  0  0  0  0
 11  7  2  0  0  0  0
 14 12  1  1  0  0  0
 13 16  1  0  0  0  0
 14 10  1  0  0  0  0
 15 25  2  0  0  0  0
 16 11  1  0  0  0  0
 17 30  1  0  0  0  0
 18 13  1  0  0  0  0
 19  8  2  0  0  0  0
 20 12  2  0  0  0  0
 21  9  2  0  0  0  0
 22 17  2  0  0  0  0
 23  5  1  0  0  0  0
 24 26  2  0  0  0  0
 25 27  1  0  0  0  0
 26 18  1  0  0  0  0
 27 18  2  0  0  0  0
 28  6  1  0  0  0  0
 29 14  1  0  0  0  0
 30 29  1  0  0  0  0
 31 12  1  0  0  0  0
 32 17  1  0  0  0  0
 33 13  1  0  0  0  0
 34 14  1  0  0  0  0
  4  3  1  0  0  0  0
 11 21  1  0  0  0  0
 15 24  1  0  0  0  0
M  END
> <#>
197

> <PLATE>
LAT003

> <ROW>
E

> <COL>
6

> <COORD>
E06

> <LATID>
LAT003E06

> <Supplier>
Sigma

> <Suplier_CAT#>
A 6770

> <Name>
Methotrexate

> <Concentration_(mM)>
2.5

> <IC50_(µM)>
0.024

> <Yeast_Active?>
-

> <Pubchem_CID>
4112

> <Description>
Folic acid antagonist

$$$$
