
  -ISIS-  08130814242D

 21 22  0  0  0  0  0  0  0  0999 V2000
    0.4000   -0.0500    0.0000 N   0  0  0  0  0  0  0  0  0  0  0  0
   -0.9458   -0.5042    0.0000 C   0  0  0  0  0  0  0  0  0  0  0  0
   -0.4000    0.1125    0.0000 N   0  0  0  0  0  0  0  0  0  0  0  0
    0.9167    0.5500    0.0000 C   0  0  0  0  0  0  0  0  0  0  0  0
   -1.7458   -0.3292    0.0000 C   0  0  0  0  0  0  0  0  0  0  0  0
    1.7167    0.4125    0.0000 C   0  0  0  0  0  0  0  0  0  0  0  0
   -3.3000    0.0958    0.0000 C   0  0  0  0  0  0  0  0  0  0  0  0
   -4.0833    0.2958    0.0000 N   0  0  3  0  0  0  0  0  0  0  0  0
   -0.6833   -1.2667    0.0000 O   0  0  0  0  0  0  0  0  0  0  0  0
    2.7542   -0.5042    0.0000 N   0  0  0  0  0  0  0  0  0  0  0  0
   -2.3000   -0.8875    0.0000 C   0  0  0  0  0  0  0  0  0  0  0  0
   -1.9708    0.4500    0.0000 C   0  0  0  0  0  0  0  0  0  0  0  0
   -3.0833   -0.6875    0.0000 C   0  0  0  0  0  0  0  0  0  0  0  0
   -2.7458    0.6708    0.0000 C   0  0  0  0  0  0  0  0  0  0  0  0
    1.9792   -0.3667    0.0000 C   0  0  0  0  0  0  0  0  0  0  0  0
    2.2167    1.0125    0.0000 C   0  0  0  0  0  0  0  0  0  0  0  0
    3.2792    0.1333    0.0000 C   0  0  0  0  0  0  0  0  0  0  0  0
    0.6542    1.3125    0.0000 C   0  0  0  0  0  0  0  0  0  0  0  0
   -4.3333    1.0708    0.0000 C   0  0  0  0  0  0  0  0  0  0  0  0
   -4.6000   -0.2875    0.0000 C   0  0  0  0  0  0  0  0  0  0  0  0
    3.0167    0.8708    0.0000 C   0  0  0  0  0  0  0  0  0  0  0  0
  2  3  1  0  0  0  0
  3  1  1  0  0  0  0
  4  1  2  0  0  0  0
  5  2  1  0  0  0  0
  6  4  1  0  0  0  0
  7 14  2  0  0  0  0
  8  7  1  0  0  0  0
  9  2  2  0  0  0  0
 10 15  2  0  0  0  0
 11  5  1  0  0  0  0
 12  5  2  0  0  0  0
 13 11  2  0  0  0  0
 14 12  1  0  0  0  0
 15  6  1  0  0  0  0
 16  6  2  0  0  0  0
 17 21  2  0  0  0  0
 18  4  1  0  0  0  0
 19  8  1  0  0  0  0
 20  8  1  0  0  0  0
 21 16  1  0  0  0  0
 10 17  1  0  0  0  0
  7 13  1  0  0  0  0
M  END
> <#>
1682

> <PLATE>
LAT022

> <ROW>
B

> <COL>
2

> <COORD>
B02

> <LATID>
LAT022B02

> <Supplier>
Chembridge

> <Suplier_CAT#>
5690538

> <Name>
Novel

> <Concentration_(mM)>
2.5

> <IC50_(µM)>
inactive

> <Yeast_Active?>
-

> <Pubchem_CID>
868156

$$$$
