
  -ISIS-  08130814242D

 22 24  0  0  0  0  0  0  0  0999 V2000
    1.0167    0.5708    0.0000 N   0  0  3  0  0  0  0  0  0  0  0  0
    0.0375    0.3833    0.0000 C   0  0  0  0  0  0  0  0  0  0  0  0
   -0.4458    1.2208    0.0000 C   0  0  0  0  0  0  0  0  0  0  0  0
    1.1042    1.5958    0.0000 N   0  0  0  0  0  0  0  0  0  0  0  0
    0.2000    1.9625    0.0000 C   0  0  0  0  0  0  0  0  0  0  0  0
   -1.4125    1.2208    0.0000 N   0  0  0  0  0  0  0  0  0  0  0  0
   -1.9333    0.3500    0.0000 N   0  0  0  0  0  0  0  0  0  0  0  0
   -2.9208    0.3500    0.0000 C   0  0  0  0  0  0  0  0  0  0  0  0
   -0.4458   -0.4542    0.0000 O   0  0  0  0  0  0  0  0  0  0  0  0
    1.7500   -0.0667    0.0000 C   0  0  0  0  0  0  0  0  0  0  0  0
   -3.4000    1.2208    0.0000 C   0  0  0  0  0  0  0  0  0  0  0  0
    0.0542    2.9458    0.0000 C   0  0  0  0  0  0  0  0  0  0  0  0
   -2.9000    2.0625    0.0000 O   0  0  0  0  0  0  0  0  0  0  0  0
   -3.4125   -0.4875    0.0000 C   0  0  0  0  0  0  0  0  0  0  0  0
    1.5542   -1.0542    0.0000 C   0  0  0  0  0  0  0  0  0  0  0  0
    2.7292    0.2125    0.0000 C   0  0  0  0  0  0  0  0  0  0  0  0
   -4.4125    1.2333    0.0000 C   0  0  0  0  0  0  0  0  0  0  0  0
   -4.4333   -0.4667    0.0000 C   0  0  0  0  0  0  0  0  0  0  0  0
    3.4667   -0.4292    0.0000 C   0  0  0  0  0  0  0  0  0  0  0  0
    2.3000   -1.7375    0.0000 C   0  0  0  0  0  0  0  0  0  0  0  0
   -4.9125    0.3833    0.0000 C   0  0  0  0  0  0  0  0  0  0  0  0
    3.2542   -1.4167    0.0000 C   0  0  0  0  0  0  0  0  0  0  0  0
  2  1  1  0  0  0  0
  3  2  1  0  0  0  0
  4  1  1  0  0  0  0
  5  4  2  0  0  0  0
  6  3  2  0  0  0  0
  7  6  1  0  0  0  0
  8  7  1  0  0  0  0
  9  2  2  0  0  0  0
 10  1  1  0  0  0  0
 11  8  2  0  0  0  0
 12  5  1  0  0  0  0
 13 11  1  0  0  0  0
 14  8  1  0  0  0  0
 15 10  1  0  0  0  0
 16 10  2  0  0  0  0
 17 11  1  0  0  0  0
 18 14  2  0  0  0  0
 19 16  1  0  0  0  0
 20 15  2  0  0  0  0
 21 18  1  0  0  0  0
 22 19  2  0  0  0  0
  5  3  1  0  0  0  0
 22 20  1  0  0  0  0
 21 17  2  0  0  0  0
M  END
> <#>
1049

> <PLATE>
LAT014

> <ROW>
A

> <COL>
3

> <COORD>
A03

> <LATID>
LAT014A03

> <Supplier>
Chembridge

> <Suplier_CAT#>
5470447

> <Name>
Novel

> <Sec_Name>
134_E05

> <Concentration_(mM)>
2.5

> <IC50_(µM)>
>100

> <Yeast_Active?>
-

> <Pubchem_CID>
NULL

$$$$
