
  -ISIS-  08130814242D

 20 21  0  0  0  0  0  0  0  0999 V2000
    2.4917   -3.1167    0.0000 C   0  0  0  0  0  0  0  0  0  0  0  0
    2.4917   -2.2917    0.0000 C   0  0  0  0  0  0  0  0  0  0  0  0
    3.2042   -3.5292    0.0000 C   0  0  0  0  0  0  0  0  0  0  0  0
    1.7750   -1.8792    0.0000 C   0  0  0  0  0  0  0  0  0  0  0  0
    1.7750   -3.5292    0.0000 C   0  0  0  0  0  0  0  0  0  0  0  0
    5.3500   -3.1167    0.0000 C   0  0  0  0  0  0  0  0  0  0  0  0
    3.9167   -3.1167    0.0000 C   0  0  0  0  0  0  0  0  0  0  0  0
    3.2042   -4.3542    0.0000 O   0  0  0  0  0  0  0  0  0  0  0  0
    4.6375   -3.5292    0.0000 O   0  0  0  0  0  0  0  0  0  0  0  0
    6.7792   -3.1167    0.0000 C   0  0  0  0  0  0  0  0  0  0  0  0
    6.0542   -1.8792    0.0000 C   0  0  0  0  0  0  0  0  0  0  0  0
    1.0625   -2.2917    0.0000 C   0  0  0  0  0  0  0  0  0  0  0  0
    6.0667   -3.5292    0.0000 C   0  0  0  0  0  0  0  0  0  0  0  0
    5.3417   -2.2917    0.0000 C   0  0  0  0  0  0  0  0  0  0  0  0
    6.7792   -2.2917    0.0000 C   0  0  0  0  0  0  0  0  0  0  0  0
    3.2042   -1.8750    0.0000 O   0  0  0  0  0  0  0  0  0  0  0  0
    1.0625   -3.1167    0.0000 C   0  0  0  0  0  0  0  0  0  0  0  0
    0.3500   -1.8792    0.0000 O   0  0  0  0  0  0  0  0  0  0  0  0
    6.0542   -1.0542    0.0000 C   0  0  0  0  0  0  0  0  0  0  0  0
    7.4917   -3.5292    0.0000 C   0  0  0  0  0  0  0  0  0  0  0  0
  2  1  1  0  0  0  0
  3  1  1  0  0  0  0
  4  2  2  0  0  0  0
  5  1  2  0  0  0  0
  6  9  1  0  0  0  0
  7  3  1  0  0  0  0
  8  3  2  0  0  0  0
  9  7  1  0  0  0  0
 10 13  1  0  0  0  0
 11 14  2  0  0  0  0
 12 17  2  0  0  0  0
 13  6  2  0  0  0  0
 14  6  1  0  0  0  0
 15 11  1  0  0  0  0
 16  2  1  0  0  0  0
 17  5  1  0  0  0  0
 18 12  1  0  0  0  0
 19 11  1  0  0  0  0
 20 10  1  0  0  0  0
 12  4  1  0  0  0  0
 15 10  2  0  0  0  0
M  END
> <#>
1253

> <PLATE>
LAT016

> <ROW>
E

> <COL>
8

> <COORD>
E08

> <LATID>
LAT016E08

> <Supplier>
Chembridge

> <Suplier_CAT#>
6431972

> <Name>
Novel

> <Concentration_(mM)>
2.5

> <IC50_(µM)>
>100

> <Yeast_Active?>
-

> <Pubchem_CID>
727695

$$$$
