
  -ISIS-  08130814242D

 20 21  0  0  0  0  0  0  0  0999 V2000
    2.0792    1.9000    0.0000 N   0  0  3  0  0  0  0  0  0  0  0  0
    0.4875    3.7958    0.0000 C   0  0  0  0  0  0  0  0  0  0  0  0
    3.6875    0.9333    0.0000 N   0  0  3  0  0  0  0  0  0  0  0  0
   -0.3333    2.3958    0.0000 N   0  0  0  0  0  0  0  0  0  0  0  0
    1.2792    3.3208    0.0000 C   0  0  0  0  0  0  0  0  0  0  0  0
   -0.3208    3.3458    0.0000 N   0  0  0  0  0  0  0  0  0  0  0  0
   -0.3625   -0.4000    0.0000 N   0  0  0  0  0  0  0  0  0  0  0  0
    0.5000    4.7292    0.0000 O   0  0  0  0  0  0  0  0  0  0  0  0
    1.2667    2.3625    0.0000 C   0  0  0  0  0  0  0  0  0  0  0  0
   -1.1500    1.9458    0.0000 C   0  0  0  0  0  0  0  0  0  0  0  0
   -1.1708    0.9958    0.0000 C   0  0  0  0  0  0  0  0  0  0  0  0
    2.0542    0.9500    0.0000 C   0  0  0  0  0  0  0  0  0  0  0  0
    2.9000    2.3458    0.0000 C   0  0  0  0  0  0  0  0  0  0  0  0
    2.8667    0.4833    0.0000 C   0  0  0  0  0  0  0  0  0  0  0  0
    3.7000    1.8708    0.0000 C   0  0  0  0  0  0  0  0  0  0  0  0
   -0.3625    0.5208    0.0000 C   0  0  0  0  0  0  0  0  0  0  0  0
    4.5042    0.4458    0.0000 C   0  0  0  0  0  0  0  0  0  0  0  0
   -1.1708   -0.8667    0.0000 C   0  0  0  0  0  0  0  0  0  0  0  0
   -1.9833    0.5208    0.0000 C   0  0  0  0  0  0  0  0  0  0  0  0
   -1.9833   -0.4000    0.0000 C   0  0  0  0  0  0  0  0  0  0  0  0
  2  5  1  0  0  0  0
  3 15  1  0  0  0  0
  4  6  1  0  0  0  0
  5  9  1  0  0  0  0
  6  2  1  0  0  0  0
  7 16  2  0  0  0  0
  8  2  2  0  0  0  0
  9  1  1  0  0  0  0
 10  4  2  0  0  0  0
 11 10  1  0  0  0  0
 12  1  1  0  0  0  0
 13  1  1  0  0  0  0
 14 12  1  0  0  0  0
 15 13  1  0  0  0  0
 16 11  1  0  0  0  0
 17  3  1  0  0  0  0
 18 20  2  0  0  0  0
 19 11  2  0  0  0  0
 20 19  1  0  0  0  0
 14  3  1  0  0  0  0
  7 18  1  0  0  0  0
M  END
> <#>
1595

> <PLATE>
LAT020

> <ROW>
C

> <COL>
11

> <COORD>
C11

> <LATID>
LAT020C11

> <Supplier>
Chembridge

> <Suplier_CAT#>
5254352

> <Name>
Novel

> <Concentration_(mM)>
2.5

> <IC50_(µM)>
inactive

> <Yeast_Active?>
-

> <Pubchem_CID>
790901

$$$$
