
  -ISIS-  08130814242D

 17 19  0  0  0  0  0  0  0  0999 V2000
   -1.0000   -0.9042    0.0000 C   0  0  0  0  0  0  0  0  0  0  0  0
   -1.0000    0.0333    0.0000 C   0  0  0  0  0  0  0  0  0  0  0  0
   -1.8125   -1.3792    0.0000 N   0  0  0  0  0  0  0  0  0  0  0  0
   -2.6208   -0.9042    0.0000 C   0  0  0  0  0  0  0  0  0  0  0  0
   -2.6208    0.0333    0.0000 N   0  0  0  0  0  0  0  0  0  0  0  0
   -0.1958   -1.3792    0.0000 O   0  0  0  0  0  0  0  0  0  0  0  0
   -1.8125    0.5000    0.0000 C   0  0  0  0  0  0  0  0  0  0  0  0
    0.6000   -0.0042    0.0000 C   0  0  0  0  0  0  0  0  0  0  0  0
    0.6167   -0.9167    0.0000 C   0  0  0  0  0  0  0  0  0  0  0  0
   -3.4333   -1.3792    0.0000 C   0  0  0  0  0  0  0  0  0  0  0  0
   -1.8125    1.4333    0.0000 C   0  0  0  0  0  0  0  0  0  0  0  0
    1.4542   -1.3667    0.0000 C   0  0  0  0  0  0  0  0  0  0  0  0
   -3.4000   -2.2875    0.0000 C   0  0  0  0  0  0  0  0  0  0  0  0
   -4.2708   -0.9375    0.0000 C   0  0  0  0  0  0  0  0  0  0  0  0
   -5.0500   -1.4292    0.0000 C   0  0  0  0  0  0  0  0  0  0  0  0
   -4.1958   -2.8000    0.0000 C   0  0  0  0  0  0  0  0  0  0  0  0
   -5.0208   -2.3667    0.0000 C   0  0  0  0  0  0  0  0  0  0  0  0
  2  1  2  0  0  0  0
  3  1  1  0  0  0  0
  4  3  2  0  0  0  0
  5  4  1  0  0  0  0
  6  1  1  0  0  0  0
  7  2  1  0  0  0  0
  8  2  1  0  0  0  0
  9  6  1  0  0  0  0
 10  4  1  0  0  0  0
 11  7  1  0  0  0  0
 12  9  1  0  0  0  0
 13 10  1  0  0  0  0
 14 10  2  0  0  0  0
 15 14  1  0  0  0  0
 16 13  2  0  0  0  0
 17 15  2  0  0  0  0
  8  9  2  0  0  0  0
  7  5  2  0  0  0  0
 16 17  1  0  0  0  0
M  END
> <#>
990

> <PLATE>
LAT013

> <ROW>
F

> <COL>
5

> <COORD>
F05

> <LATID>
LAT013F05

> <Supplier>
Chembridge

> <Suplier_CAT#>
5727841

> <Name>
Novel

> <Sec_Name>
228_E09

> <Concentration_(mM)>
2.5

> <IC50_(µM)>
64

> <Yeast_Active?>
-

> <Pubchem_CID>
757837

$$$$
