
  -ISIS-  08130814242D

 21 23  0  0  0  0  0  0  0  0999 V2000
   -2.0958    0.7833    0.0000 C   0  0  0  0  0  0  0  0  0  0  0  0
   -2.6625    0.0208    0.0000 S   0  0  0  0  0  0  0  0  0  0  0  0
   -2.6625    1.5833    0.0000 C   0  0  0  0  0  0  0  0  0  0  0  0
   -1.1208    0.7833    0.0000 C   0  0  0  0  0  0  0  0  0  0  0  0
   -3.5833    1.2833    0.0000 C   0  0  0  0  0  0  0  0  0  0  0  0
   -3.5833    0.3000    0.0000 C   0  0  0  0  0  0  0  0  0  0  0  0
    0.3500   -0.0792    0.0000 N   0  0  0  0  0  0  0  0  0  0  0  0
   -0.6208   -0.0667    0.0000 N   0  0  0  0  0  0  0  0  0  0  0  0
   -0.6208    1.6125    0.0000 O   0  0  0  0  0  0  0  0  0  0  0  0
   -2.3458    2.5000    0.0000 Cl  0  0  0  0  0  0  0  0  0  0  0  0
    3.2375   -1.7375    0.0000 N   0  0  0  0  0  0  0  0  0  0  0  0
    0.8292   -0.9292    0.0000 C   0  0  0  0  0  0  0  0  0  0  0  0
    1.7875   -0.9292    0.0000 C   0  0  0  0  0  0  0  0  0  0  0  0
   -4.4125    1.7708    0.0000 C   0  0  0  0  0  0  0  0  0  0  0  0
    2.2875   -1.7542    0.0000 C   0  0  0  0  0  0  0  0  0  0  0  0
   -4.4125   -0.1667    0.0000 C   0  0  0  0  0  0  0  0  0  0  0  0
    3.7042   -0.9042    0.0000 C   0  0  0  0  0  0  0  0  0  0  0  0
    2.2500   -0.0917    0.0000 C   0  0  0  0  0  0  0  0  0  0  0  0
   -5.2708    1.2833    0.0000 C   0  0  0  0  0  0  0  0  0  0  0  0
    3.2167   -0.0875    0.0000 C   0  0  0  0  0  0  0  0  0  0  0  0
   -5.2708    0.3000    0.0000 C   0  0  0  0  0  0  0  0  0  0  0  0
  2  1  1  0  0  0  0
  3  1  2  0  0  0  0
  4  1  1  0  0  0  0
  5  3  1  0  0  0  0
  6  2  1  0  0  0  0
  7  8  1  0  0  0  0
  8  4  1  0  0  0  0
  9  4  2  0  0  0  0
 10  3  1  0  0  0  0
 11 15  1  0  0  0  0
 12  7  2  0  0  0  0
 13 12  1  0  0  0  0
 14  5  1  0  0  0  0
 15 13  2  0  0  0  0
 16  6  1  0  0  0  0
 17 20  1  0  0  0  0
 18 13  1  0  0  0  0
 19 14  2  0  0  0  0
 20 18  2  0  0  0  0
 21 16  2  0  0  0  0
  5  6  2  0  0  0  0
 21 19  1  0  0  0  0
 11 17  2  0  0  0  0
M  END
> <#>
1618

> <PLATE>
LAT021

> <ROW>
B

> <COL>
4

> <COORD>
B04

> <LATID>
LAT021B04

> <Supplier>
Chembridge

> <Suplier_CAT#>
5475948

> <Name>
Novel

> <Concentration_(mM)>
2.5

> <IC50_(µM)>
76

> <Yeast_Active?>
-

> <Pubchem_CID>
868395

$$$$
