
  -ISIS-  08130814242D

 15 16  0  0  0  0  0  0  0  0999 V2000
    1.1167    0.7458    0.0000 N   0  0  3  0  0  0  0  0  0  0  0  0
   -0.2708    1.7458    0.0000 C   0  0  0  0  0  0  0  0  0  0  0  0
    0.2667    3.3708    0.0000 N   0  0  0  0  0  0  0  0  0  0  0  0
    2.5000    1.7458    0.0000 C   0  0  0  0  0  0  0  0  0  0  0  0
    1.9542    3.3458    0.0000 N   0  0  0  0  0  0  0  0  0  0  0  0
   -1.8708    1.1458    0.0000 C   0  0  0  0  0  0  0  0  0  0  0  0
    1.1167   -1.0000    0.0000 C   0  0  0  0  0  0  0  0  0  0  0  0
   -3.3625    0.3625    0.0000 O   0  0  0  0  0  0  0  0  0  0  0  0
   -2.1708    2.8208    0.0000 C   0  0  0  0  0  0  0  0  0  0  0  0
   -0.3833   -1.8375    0.0000 C   0  0  0  0  0  0  0  0  0  0  0  0
    4.1500    1.2333    0.0000 S   0  0  0  0  0  0  0  0  0  0  0  0
   -4.5833    1.5500    0.0000 C   0  0  0  0  0  0  0  0  0  0  0  0
   -3.8500    3.0708    0.0000 C   0  0  0  0  0  0  0  0  0  0  0  0
   -0.3833   -3.5667    0.0000 C   0  0  0  0  0  0  0  0  0  0  0  0
   -1.8708   -1.0000    0.0000 C   0  0  0  0  0  0  0  0  0  0  0  0
  2  1  1  0  0  0  0
  3  2  2  0  0  0  0
  4  1  1  0  0  0  0
  5  4  2  0  0  0  0
  6  2  1  0  0  0  0
  7  1  1  0  0  0  0
  8  6  1  0  0  0  0
  9  6  2  0  0  0  0
 10  7  1  0  0  0  0
 11  4  1  0  0  0  0
 12  8  1  0  0  0  0
 13  9  1  0  0  0  0
 14 10  2  0  0  0  0
 15 10  1  0  0  0  0
  3  5  1  0  0  0  0
 12 13  2  0  0  0  0
M  END
> <#>
2019

> <PLATE>
LAT026

> <ROW>
C

> <COL>
4

> <COORD>
C04

> <LATID>
LAT026C04

> <Supplier>
Chembridge

> <Suplier_CAT#>
5667217

> <Sec_Name>
209_G04

> <Concentration_(mM)>
2.5

> <IC50_(µM)>
inactive

> <Yeast_Active?>
-

> <Pubchem_CID>
NULL

$$$$
