
  -ISIS-  08130814242D

 11 11  0  0  0  0  0  0  0  0999 V2000
    1.8776    1.8490    0.0000 O   0  0  0  0  0  0  0  0  0  0  0  0
    0.7950    1.2240    0.0000 C   0  0  1  0  0  0  0  0  0  0  0  0
    0.7950   -0.0260    0.0000 C   0  0  2  0  0  0  0  0  0  0  0  0
    1.8776   -0.6510    0.0000 O   0  0  0  0  0  0  0  0  0  0  0  0
   -0.2875   -0.6510    0.0000 C   0  0  2  0  0  0  0  0  0  0  0  0
   -0.2875   -1.9010    0.0000 O   0  0  0  0  0  0  0  0  0  0  0  0
   -1.3700   -0.0260    0.0000 C   0  0  1  0  0  0  0  0  0  0  0  0
   -2.4526   -0.6510    0.0000 O   0  0  0  0  0  0  0  0  0  0  0  0
   -1.3700    1.2240    0.0000 C   0  0  1  0  0  0  0  0  0  0  0  0
   -0.2875    1.8490    0.0000 O   0  0  0  0  0  0  0  0  0  0  0  0
   -2.4526    1.8490    0.0000 C   0  0  0  0  0  0  0  0  0  0  0  0
  2  1  1  1  0  0  0
  2  3  1  0  0  0  0
  3  4  1  6  0  0  0
  3  5  1  0  0  0  0
  5  6  1  6  0  0  0
  5  7  1  0  0  0  0
  7  8  1  1  0  0  0
  7  9  1  0  0  0  0
  9 10  1  0  0  0  0
  9 11  1  6  0  0  0
  2 10  1  0  0  0  0
M  END
> <#>
422

> <PLATE>
LAT006

> <ROW>
F

> <COL>
4

> <COORD>
F04

> <LATID>
LAT006F04

> <Supplier>
Sigma

> <Suplier_CAT#>
R-3875

> <Name>
Alpha-L-Rhamnose

> <Concentration_(mM)>
2.5

> <IC50_(µM)>
inactive

> <Yeast_Active?>
-

> <Pubchem_CID>
840

$$$$
