
  -ISIS-  08130814242D

 21 23  0  0  0  0  0  0  0  0999 V2000
   -1.8958   -0.0667    0.0000 C   0  0  0  0  0  0  0  0  0  0  0  0
   -1.3708   -0.3667    0.0000 C   0  0  0  0  0  0  0  0  0  0  0  0
   -0.8500   -0.0667    0.0000 N   0  0  3  0  0  0  0  0  0  0  0  0
    0.1292    0.0500    0.0000 N   0  0  0  0  0  0  0  0  0  0  0  0
   -0.7125    0.5333    0.0000 N   0  0  0  0  0  0  0  0  0  0  0  0
   -1.8958    0.5500    0.0000 C   0  0  0  0  0  0  0  0  0  0  0  0
   -0.3333   -0.3667    0.0000 C   0  0  0  0  0  0  0  0  0  0  0  0
   -0.1125    0.5958    0.0000 C   0  0  0  0  0  0  0  0  0  0  0  0
   -1.3708   -0.9667    0.0000 C   0  0  0  0  0  0  0  0  0  0  0  0
   -1.3500    0.8500    0.0000 O   0  0  0  0  0  0  0  0  0  0  0  0
   -2.4333    0.8500    0.0000 C   0  0  0  0  0  0  0  0  0  0  0  0
   -1.8958   -1.2667    0.0000 C   0  0  0  0  0  0  0  0  0  0  0  0
   -0.8500   -1.2667    0.0000 C   0  0  0  0  0  0  0  0  0  0  0  0
   -2.9500    0.5500    0.0000 C   0  0  0  0  0  0  0  0  0  0  0  0
   -2.4333    1.4708    0.0000 C   0  0  0  0  0  0  0  0  0  0  0  0
   -1.8958   -1.8667    0.0000 C   0  0  0  0  0  0  0  0  0  0  0  0
   -2.9500    1.7708    0.0000 C   0  0  0  0  0  0  0  0  0  0  0  0
   -0.8500   -1.8667    0.0000 C   0  0  0  0  0  0  0  0  0  0  0  0
   -3.4708    0.8500    0.0000 C   0  0  0  0  0  0  0  0  0  0  0  0
   -3.4708    1.4708    0.0000 C   0  0  0  0  0  0  0  0  0  0  0  0
   -1.3708   -2.1667    0.0000 C   0  0  0  0  0  0  0  0  0  0  0  0
  2  1  2  0  0  0  0
  3  2  1  0  0  0  0
  4  7  2  0  0  0  0
  5  3  1  0  0  0  0
  6  1  1  0  0  0  0
  7  3  1  0  0  0  0
  8  5  2  0  0  0  0
  9  2  1  0  0  0  0
 10  6  2  0  0  0  0
 11  6  1  0  0  0  0
 12  9  1  0  0  0  0
 13  9  2  0  0  0  0
 14 11  1  0  0  0  0
 15 11  2  0  0  0  0
 16 12  2  0  0  0  0
 17 15  1  0  0  0  0
 18 13  1  0  0  0  0
 19 14  2  0  0  0  0
 20 17  2  0  0  0  0
 21 18  2  0  0  0  0
  4  8  1  0  0  0  0
 20 19  1  0  0  0  0
 21 16  1  0  0  0  0
M  END
> <#>
1914

> <PLATE>
LAT024

> <ROW>
B

> <COL>
11

> <COORD>
B11

> <LATID>
LAT024B11

> <Supplier>
Chembridge

> <Suplier_CAT#>
5523905

> <Name>
148_F06

> <Sec_Name>
148_F06

> <Concentration_(mM)>
2.5

> <IC50_(µM)>
>100

> <Yeast_Active?>
-

> <Pubchem_CID>
2849703

$$$$
