
  -ISIS-  08130814242D

 19 21  0  0  0  0  0  0  0  0999 V2000
   -1.0125    0.1333    0.0000 C   0  0  0  0  0  0  0  0  0  0  0  0
   -0.2125   -0.3167    0.0000 N   0  0  0  0  0  0  0  0  0  0  0  0
   -0.2000   -1.2500    0.0000 C   0  0  0  0  0  0  0  0  0  0  0  0
   -1.0125   -1.7000    0.0000 N   0  0  0  0  0  0  0  0  0  0  0  0
   -1.8000   -0.3167    0.0000 C   0  0  0  0  0  0  0  0  0  0  0  0
   -1.8000   -1.2500    0.0000 C   0  0  0  0  0  0  0  0  0  0  0  0
   -1.0125    1.0625    0.0000 N   0  0  0  0  0  0  0  0  0  0  0  0
   -0.2000    1.5333    0.0000 C   0  0  0  0  0  0  0  0  0  0  0  0
    0.6000    1.0708    0.0000 C   0  0  0  0  0  0  0  0  0  0  0  0
    0.6042   -1.7000    0.0000 O   0  0  0  0  0  0  0  0  0  0  0  0
   -2.6125   -1.7042    0.0000 O   0  0  0  0  0  0  0  0  0  0  0  0
    1.3792    1.5333    0.0000 C   0  0  0  0  0  0  0  0  0  0  0  0
   -0.2125    2.4583    0.0000 C   0  0  0  0  0  0  0  0  0  0  0  0
    0.6000    2.9125    0.0000 C   0  0  0  0  0  0  0  0  0  0  0  0
    0.6000    0.1500    0.0000 C   0  0  0  0  0  0  0  0  0  0  0  0
    1.3792    2.4583    0.0000 C   0  0  0  0  0  0  0  0  0  0  0  0
    2.1792    1.0708    0.0000 C   0  0  0  0  0  0  0  0  0  0  0  0
    1.3792   -0.3000    0.0000 C   0  0  0  0  0  0  0  0  0  0  0  0
    2.1875    0.1500    0.0000 C   0  0  0  0  0  0  0  0  0  0  0  0
  2  1  1  0  0  0  0
  3  2  1  0  0  0  0
  4  6  1  0  0  0  0
  5  1  2  0  0  0  0
  6  5  1  0  0  0  0
  7  1  1  0  0  0  0
  8  7  1  0  0  0  0
  9  8  1  0  0  0  0
 10  3  2  0  0  0  0
 11  6  2  0  0  0  0
 12  9  1  0  0  0  0
 13  8  2  0  0  0  0
 14 13  1  0  0  0  0
 15  9  2  0  0  0  0
 16 14  2  0  0  0  0
 17 12  2  0  0  0  0
 18 15  1  0  0  0  0
 19 18  2  0  0  0  0
  3  4  1  0  0  0  0
 16 12  1  0  0  0  0
 17 19  1  0  0  0  0
M  END
> <#>
1967

> <PLATE>
LAT025

> <ROW>
G

> <COL>
7

> <COORD>
G07

> <LATID>
LAT025G07

> <Supplier>
Chembridge

> <Suplier_CAT#>
5631931

> <Sec_Name>
192_A07

> <Concentration_(mM)>
2.5

> <IC50_(µM)>
inactive

> <Yeast_Active?>
-

> <Pubchem_CID>
309881

$$$$
