
  -ISIS-  08130814242D

 34 36  0  0  0  0  0  0  0  0999 V2000
    6.6605   -4.3577    0.0000 O   0  0  0  0  0  0  0  0  0  0  0  0
    5.5779   -3.7327    0.0000 C   0  0  0  0  0  0  0  0  0  0  0  0
    5.5779   -2.4827    0.0000 C   0  0  1  0  0  0  0  0  0  0  0  0
    4.4954   -1.8577    0.0000 O   0  0  0  0  0  0  0  0  0  0  0  0
    4.4954   -0.6077    0.0000 C   0  0  3  0  0  0  0  0  0  0  0  0
    3.4129    0.0173    0.0000 O   0  0  0  0  0  0  0  0  0  0  0  0
    2.3304   -0.6077    0.0000 C   0  0  0  0  0  0  0  0  0  0  0  0
    1.2478    0.0173    0.0000 C   0  0  1  0  0  0  0  0  0  0  0  0
    0.1653   -0.6077    0.0000 O   0  0  0  0  0  0  0  0  0  0  0  0
   -0.9172    0.0173    0.0000 C   0  0  3  0  0  0  0  0  0  0  0  0
   -1.9998   -0.6077    0.0000 O   0  0  0  0  0  0  0  0  0  0  0  0
   -1.9998   -1.8577    0.0000 C   0  0  1  0  0  0  0  0  0  0  0  0
   -3.2429   -1.7270    0.0000 C   0  0  0  0  0  0  0  0  0  0  0  0
   -3.7513   -0.5851    0.0000 O   0  0  0  0  0  0  0  0  0  0  0  0
   -2.2597   -3.0804    0.0000 C   0  0  1  0  0  0  0  0  0  0  0  0
   -3.4016   -3.5888    0.0000 O   0  0  0  0  0  0  0  0  0  0  0  0
   -1.1771   -3.7054    0.0000 C   0  0  2  0  0  0  0  0  0  0  0  0
   -1.0465   -4.9485    0.0000 O   0  0  0  0  0  0  0  0  0  0  0  0
   -0.2482   -2.8690    0.0000 C   0  0  1  0  0  0  0  0  0  0  0  0
    0.9745   -3.1289    0.0000 C   0  0  0  0  0  0  0  0  0  0  0  0
    1.3608   -4.3177    0.0000 O   0  0  0  0  0  0  0  0  0  0  0  0
   -0.7566   -1.7270    0.0000 O   0  0  0  0  0  0  0  0  0  0  0  0
   -0.9172    1.2673    0.0000 C   0  0  2  0  0  0  0  0  0  0  0  0
   -1.9998    1.8923    0.0000 O   0  0  0  0  0  0  0  0  0  0  0  0
    0.1653    1.8923    0.0000 C   0  0  1  0  0  0  0  0  0  0  0  0
    0.1653    3.1423    0.0000 O   0  0  0  0  0  0  0  0  0  0  0  0
    1.2478    1.2673    0.0000 C   0  0  2  0  0  0  0  0  0  0  0  0
    2.3304    1.8923    0.0000 O   0  0  0  0  0  0  0  0  0  0  0  0
    5.5779    0.0173    0.0000 C   0  0  2  0  0  0  0  0  0  0  0  0
    5.5779    1.2673    0.0000 O   0  0  0  0  0  0  0  0  0  0  0  0
    6.6605   -0.6077    0.0000 C   0  0  1  0  0  0  0  0  0  0  0  0
    7.7430    0.0173    0.0000 O   0  0  0  0  0  0  0  0  0  0  0  0
    6.6605   -1.8577    0.0000 C   0  0  1  0  0  0  0  0  0  0  0  0
    7.7430   -2.4827    0.0000 O   0  0  0  0  0  0  0  0  0  0  0  0
  1  2  1  0  0  0  0
  3  2  1  1  0  0  0
  3  4  1  0  0  0  0
  4  5  1  0  0  0  0
  5  6  1  0  0  0  0
  6  7  1  0  0  0  0
  8  7  1  1  0  0  0
  8  9  1  0  0  0  0
  9 10  1  0  0  0  0
 10 11  1  0  0  0  0
 12 11  1  6  0  0  0
 12 13  1  1  0  0  0
 13 14  1  0  0  0  0
 12 15  1  0  0  0  0
 15 16  1  6  0  0  0
 15 17  1  0  0  0  0
 17 18  1  1  0  0  0
 17 19  1  0  0  0  0
 19 20  1  6  0  0  0
 20 21  1  0  0  0  0
 19 22  1  0  0  0  0
 12 22  1  0  0  0  0
 10 23  1  0  0  0  0
 23 24  1  6  0  0  0
 23 25  1  0  0  0  0
 25 26  1  1  0  0  0
 25 27  1  0  0  0  0
  8 27  1  0  0  0  0
 27 28  1  6  0  0  0
  5 29  1  0  0  0  0
 29 30  1  6  0  0  0
 29 31  1  0  0  0  0
 31 32  1  1  0  0  0
 31 33  1  0  0  0  0
  3 33  1  0  0  0  0
 33 34  1  1  0  0  0
M  END
> <#>
421

> <PLATE>
LAT006

> <ROW>
E

> <COL>
4

> <COORD>
E04

> <LATID>
LAT006E04

> <Supplier>
Nutirional Biochemicals

> <Suplier_CAT#>
Raffinose

> <Name>
D (+) Raffinose

> <Concentration_(mM)>
2.5

> <IC50_(µM)>
inactive

> <Yeast_Active?>
-

> <Pubchem_CID>
10542

$$$$
