
  -ISIS-  08130814242D

 19 20  0  0  0  0  0  0  0  0999 V2000
   -2.0958    0.7708    0.0000 C   0  0  3  0  0  0  0  0  0  0  0  0
   -2.3500   -0.4042    0.0000 C   0  0  3  0  0  0  0  0  0  0  0  0
   -1.1958   -0.0292    0.0000 C   0  0  3  0  0  0  0  0  0  0  0  0
    4.0000    0.0000    0.0000 S   0  0  3  0  0  0  0  0  0  0  0  0
   -0.0625    0.3625    0.0000 C   0  0  0  0  0  0  0  0  0  0  0  0
   -3.1500   -1.3167    0.0000 C   0  0  0  0  0  0  0  0  0  0  0  0
    3.0292   -0.7500    0.0000 C   0  0  0  0  0  0  0  0  0  0  0  0
    0.8667   -0.4375    0.0000 N   0  0  0  0  0  0  0  0  0  0  0  0
   -4.3333   -1.0792    0.0000 C   0  0  0  0  0  0  0  0  0  0  0  0
    5.1042    0.5208    0.0000 O   0  0  0  0  0  0  0  0  0  0  0  0
    4.7000   -1.0042    0.0000 O   0  0  0  0  0  0  0  0  0  0  0  0
    2.0500   -0.0500    0.0000 C   0  0  3  0  0  0  0  0  0  0  0  0
    0.2000    1.5708    0.0000 O   0  0  0  0  0  0  0  0  0  0  0  0
    3.6167    1.1125    0.0000 C   0  0  0  0  0  0  0  0  0  0  0  0
    2.4042    1.1125    0.0000 C   0  0  0  0  0  0  0  0  0  0  0  0
   -3.1833    1.3458    0.0000 C   0  0  0  0  0  0  0  0  0  0  0  0
   -1.9458    1.9958    0.0000 C   0  0  0  0  0  0  0  0  0  0  0  0
   -5.1333   -1.9875    0.0000 Cl  0  0  0  0  0  0  0  0  0  0  0  0
   -4.7208    0.0500    0.0000 Cl  0  0  0  0  0  0  0  0  0  0  0  0
  2  1  1  0  0  0  0
  3  1  1  0  0  0  0
  4  7  1  0  0  0  0
  5  3  1  0  0  0  0
  6  2  1  0  0  0  0
  7 12  1  0  0  0  0
  8  5  1  0  0  0  0
  9  6  2  0  0  0  0
 10  4  2  0  0  0  0
 11  4  2  0  0  0  0
 12  8  1  0  0  0  0
 13  5  2  0  0  0  0
 14 15  1  0  0  0  0
 15 12  1  0  0  0  0
 16  1  1  0  0  0  0
 17  1  1  0  0  0  0
 18  9  1  0  0  0  0
 19  9  1  0  0  0  0
  2  3  1  0  0  0  0
  4 14  1  0  0  0  0
M  END
> <#>
2042

> <PLATE>
LAT026

> <ROW>
B

> <COL>
7

> <COORD>
B07

> <LATID>
LAT026B07

> <Supplier>
Chembridge

> <Suplier_CAT#>
5528400

> <Sec_Name>
151_B06

> <Concentration_(mM)>
2.5

> <IC50_(µM)>
inactive

> <Yeast_Active?>
-

> <Pubchem_CID>
3118302

$$$$
