
  -ISIS-  08130814242D

 27 29  0  0  0  0  0  0  0  0999 V2000
    2.0042    0.7458    0.0000 S   0  0  3  0  0  0  0  0  0  0  0  0
    1.6292    1.3958    0.0000 N   0  0  3  0  0  0  0  0  0  0  0  0
    2.7292    0.9458    0.0000 C   0  0  0  0  0  0  0  0  0  0  0  0
    1.3250    0.4333    0.0000 O   0  0  0  0  0  0  0  0  0  0  0  0
    2.2542    0.0458    0.0000 O   0  0  0  0  0  0  0  0  0  0  0  0
    6.1542    1.1875    0.0000 C   0  0  0  0  0  0  0  0  0  0  0  0
    6.6875    0.6583    0.0000 N   0  0  0  0  0  0  0  0  0  0  0  0
    7.7500   -0.4042    0.0000 N   0  0  0  0  0  0  0  0  0  0  0  0
    6.3542    1.9125    0.0000 O   0  0  0  0  0  0  0  0  0  0  0  0
    0.8792    2.6958    0.0000 O   0  0  0  0  0  0  0  0  0  0  0  0
    3.2625    0.4125    0.0000 C   0  0  0  0  0  0  0  0  0  0  0  0
    2.9250    1.6708    0.0000 C   0  0  0  0  0  0  0  0  0  0  0  0
    0.8792    1.3958    0.0000 C   0  0  0  0  0  0  0  0  0  0  0  0
    2.0042    2.0458    0.0000 C   0  0  0  0  0  0  0  0  0  0  0  0
    4.9042    1.5250    0.0000 O   0  0  0  0  0  0  0  0  0  0  0  0
    5.4292    0.9958    0.0000 C   0  0  0  0  0  0  0  0  0  0  0  0
    7.9417    0.3208    0.0000 C   0  0  0  0  0  0  0  0  0  0  0  0
    4.1792    1.3333    0.0000 C   0  0  0  0  0  0  0  0  0  0  0  0
    7.4125    0.8500    0.0000 C   0  0  0  0  0  0  0  0  0  0  0  0
    3.6500    1.8583    0.0000 C   0  0  0  0  0  0  0  0  0  0  0  0
    3.9792    0.6083    0.0000 C   0  0  0  0  0  0  0  0  0  0  0  0
    1.6292    2.6958    0.0000 C   0  0  0  0  0  0  0  0  0  0  0  0
    0.5042    2.0458    0.0000 C   0  0  0  0  0  0  0  0  0  0  0  0
    8.2792   -0.9292    0.0000 C   0  0  0  0  0  0  0  0  0  0  0  0
    8.6667    0.5125    0.0000 C   0  0  0  0  0  0  0  0  0  0  0  0
    9.0042   -0.7417    0.0000 C   0  0  0  0  0  0  0  0  0  0  0  0
    9.2000   -0.0167    0.0000 C   0  0  0  0  0  0  0  0  0  0  0  0
  2  1  1  0  0  0  0
  3  1  1  0  0  0  0
  4  1  2  0  0  0  0
  5  1  2  0  0  0  0
  6 16  1  0  0  0  0
  7  6  1  0  0  0  0
  8 17  2  0  0  0  0
  9  6  2  0  0  0  0
 10 22  1  0  0  0  0
 11  3  1  0  0  0  0
 12  3  2  0  0  0  0
 13  2  1  0  0  0  0
 14  2  1  0  0  0  0
 15 18  1  0  0  0  0
 16 15  1  0  0  0  0
 17 19  1  0  0  0  0
 18 20  2  0  0  0  0
 19  7  1  0  0  0  0
 20 12  1  0  0  0  0
 21 11  2  0  0  0  0
 22 14  1  0  0  0  0
 23 13  1  0  0  0  0
 24  8  1  0  0  0  0
 25 17  1  0  0  0  0
 26 27  1  0  0  0  0
 27 25  2  0  0  0  0
 18 21  1  0  0  0  0
 23 10  1  0  0  0  0
 24 26  2  0  0  0  0
M  END
> <#>
1488

> <PLATE>
LAT019

> <ROW>
H

> <COL>
7

> <COORD>
H07

> <LATID>
LAT019H07

> <Supplier>
Chembridge

> <Suplier_CAT#>
7964099

> <Name>
Novel

> <Concentration_(mM)>
2.5

> <IC50_(µM)>
inactive

> <Yeast_Active?>
-

> <Pubchem_CID>
2230271

$$$$
