
  -ISIS-  08130814242D

 23 24  0  0  0  0  0  0  0  0999 V2000
   -1.9333   -1.1375    0.0000 C   0  0  0  0  0  0  0  0  0  0  0  0
    1.2042   -1.1375    0.0000 C   0  0  0  0  0  0  0  0  0  0  0  0
   -2.7125   -1.6000    0.0000 N   0  0  0  0  0  0  0  0  0  0  0  0
    1.9875   -1.6000    0.0000 N   0  0  0  0  0  0  0  0  0  0  0  0
   -1.9333   -0.2375    0.0000 C   0  0  0  0  0  0  0  0  0  0  0  0
    1.2042   -0.2375    0.0000 C   0  0  0  0  0  0  0  0  0  0  0  0
   -2.7125    0.2208    0.0000 C   0  0  0  0  0  0  0  0  0  0  0  0
    1.9875    0.2208    0.0000 C   0  0  0  0  0  0  0  0  0  0  0  0
    0.4292    0.2208    0.0000 C   0  0  0  0  0  0  0  0  0  0  0  0
   -1.1500    0.2208    0.0000 C   0  0  0  0  0  0  0  0  0  0  0  0
    1.2042    1.5833    0.0000 C   0  0  0  0  0  0  0  0  0  0  0  0
   -1.9333    1.5833    0.0000 C   0  0  0  0  0  0  0  0  0  0  0  0
   -3.5000   -1.1875    0.0000 O   0  0  0  0  0  0  0  0  0  0  0  0
    2.7667   -1.1375    0.0000 O   0  0  0  0  0  0  0  0  0  0  0  0
   -1.1500    1.1458    0.0000 C   0  0  0  0  0  0  0  0  0  0  0  0
   -2.7125    1.1458    0.0000 C   0  0  0  0  0  0  0  0  0  0  0  0
    1.9875    1.1458    0.0000 C   0  0  0  0  0  0  0  0  0  0  0  0
    0.4292    1.1458    0.0000 C   0  0  0  0  0  0  0  0  0  0  0  0
   -1.9333    2.5000    0.0000 F   0  0  0  0  0  0  0  0  0  0  0  0
    1.2042    2.5000    0.0000 F   0  0  0  0  0  0  0  0  0  0  0  0
   -0.3500   -1.1375    0.0000 C   0  0  0  0  0  0  0  0  0  0  0  0
   -1.1500   -1.6000    0.0000 C   0  0  0  0  0  0  0  0  0  0  0  0
    0.4292   -1.6000    0.0000 C   0  0  0  0  0  0  0  0  0  0  0  0
  2 23  1  0  0  0  0
  3  1  2  0  0  0  0
  4  2  2  0  0  0  0
  5  1  1  0  0  0  0
  6  2  1  0  0  0  0
  7  5  2  0  0  0  0
  8  6  1  0  0  0  0
  9  6  2  0  0  0  0
 10  5  1  0  0  0  0
 11 18  2  0  0  0  0
 12 15  1  0  0  0  0
 13  3  1  0  0  0  0
 14  4  1  0  0  0  0
 15 10  2  0  0  0  0
 16  7  1  0  0  0  0
 17  8  2  0  0  0  0
 18  9  1  0  0  0  0
 19 12  1  0  0  0  0
 20 11  1  0  0  0  0
 21 22  1  0  0  0  0
 22  1  1  0  0  0  0
 23 21  1  0  0  0  0
 12 16  2  0  0  0  0
 17 11  1  0  0  0  0
M  END
> <#>
643

> <PLATE>
LAT009

> <ROW>
C

> <COL>
2

> <COORD>
C02

> <LATID>
LAT009C02

> <Supplier>
Chembridge

> <Suplier_CAT#>
5510736

> <Name>
Novel

> <Sec_Name>
146_B06

> <Concentration_(mM)>
2.5

> <IC50_(µM)>
70

> <Yeast_Active?>
-

> <Pubchem_CID>
2849394

$$$$
