
  -ISIS-  08130814242D

 21 23  0  0  0  0  0  0  0  0999 V2000
    3.7667   -4.2792    0.0000 C   0  0  0  0  0  0  0  0  0  0  0  0
    3.5500   -3.4792    0.0000 N   0  0  0  0  0  0  0  0  0  0  0  0
    2.7292   -3.4500    0.0000 C   0  0  0  0  0  0  0  0  0  0  0  0
    3.0875   -4.7292    0.0000 S   0  0  0  0  0  0  0  0  0  0  0  0
    2.4375   -4.2167    0.0000 C   0  0  3  0  0  0  0  0  0  0  0  0
    4.5500   -4.5667    0.0000 N   0  0  0  0  0  0  0  0  0  0  0  0
    1.6500   -4.4417    0.0000 C   0  0  0  0  0  0  0  0  0  0  0  0
    1.0542   -3.8667    0.0000 C   0  0  0  0  0  0  0  0  0  0  0  0
    2.2667   -2.7542    0.0000 O   0  0  0  0  0  0  0  0  0  0  0  0
    0.2542   -4.0875    0.0000 C   0  0  0  0  0  0  0  0  0  0  0  0
    5.1792   -4.0375    0.0000 C   0  0  0  0  0  0  0  0  0  0  0  0
    0.0500   -4.8792    0.0000 Cl  0  0  0  0  0  0  0  0  0  0  0  0
    1.2542   -3.0542    0.0000 C   0  0  0  0  0  0  0  0  0  0  0  0
   -0.3208   -3.5000    0.0000 C   0  0  0  0  0  0  0  0  0  0  0  0
    5.0375   -3.2292    0.0000 C   0  0  0  0  0  0  0  0  0  0  0  0
    5.9500   -4.3375    0.0000 C   0  0  0  0  0  0  0  0  0  0  0  0
    0.6667   -2.4875    0.0000 C   0  0  0  0  0  0  0  0  0  0  0  0
   -0.1125   -2.7000    0.0000 C   0  0  0  0  0  0  0  0  0  0  0  0
    6.5875   -3.8042    0.0000 C   0  0  0  0  0  0  0  0  0  0  0  0
    5.6667   -2.7042    0.0000 C   0  0  0  0  0  0  0  0  0  0  0  0
    6.4500   -3.0000    0.0000 C   0  0  0  0  0  0  0  0  0  0  0  0
  2  1  1  0  0  0  0
  3  2  1  0  0  0  0
  4  1  1  0  0  0  0
  5  4  1  0  0  0  0
  6  1  2  0  0  0  0
  7  5  1  0  0  0  0
  8  7  1  0  0  0  0
  9  3  2  0  0  0  0
 10  8  2  0  0  0  0
 11  6  1  0  0  0  0
 12 10  1  0  0  0  0
 13  8  1  0  0  0  0
 14 10  1  0  0  0  0
 15 11  1  0  0  0  0
 16 11  2  0  0  0  0
 17 13  2  0  0  0  0
 18 17  1  0  0  0  0
 19 16  1  0  0  0  0
 20 15  2  0  0  0  0
 21 19  2  0  0  0  0
  3  5  1  0  0  0  0
 20 21  1  0  0  0  0
 18 14  2  0  0  0  0
M  END
> <#>
782

> <PLATE>
LAT010

> <ROW>
F

> <COL>
9

> <COORD>
F09

> <LATID>
LAT010F09

> <Supplier>
Chembridge

> <Suplier_CAT#>
5621622

> <Name>
Novel

> <Sec_Name>
188_F05

> <Concentration_(mM)>
2.5

> <IC50_(µM)>
100

> <Yeast_Active?>
-

> <Pubchem_CID>
NULL

$$$$
