
  -ISIS-  08130814242D

 18 19  0  0  0  0  0  0  0  0999 V2000
   -1.0458    0.0833    0.0000 C   0  0  0  0  0  0  0  0  0  0  0  0
   -0.6625   -0.1542    0.0000 C   0  0  0  0  0  0  0  0  0  0  0  0
   -1.0458    0.5458    0.0000 C   0  0  0  0  0  0  0  0  0  0  0  0
   -1.4458   -0.1542    0.0000 C   0  0  0  0  0  0  0  0  0  0  0  0
    0.5375    0.0625    0.0000 N   0  0  0  0  0  0  0  0  0  0  0  0
   -1.4458    0.7833    0.0000 C   0  0  0  0  0  0  0  0  0  0  0  0
    0.1375   -0.1542    0.0000 C   0  0  0  0  0  0  0  0  0  0  0  0
   -0.2625    0.0833    0.0000 C   0  0  0  0  0  0  0  0  0  0  0  0
   -1.8458    0.5625    0.0000 C   0  0  0  0  0  0  0  0  0  0  0  0
   -1.8458    0.0833    0.0000 C   0  0  0  0  0  0  0  0  0  0  0  0
    0.6792   -0.6792    0.0000 S   0  0  0  0  0  0  0  0  0  0  0  0
    0.8542   -0.2542    0.0000 C   0  0  0  0  0  0  0  0  0  0  0  0
    0.2167   -0.6000    0.0000 C   0  0  0  0  0  0  0  0  0  0  0  0
   -0.6625   -0.6167    0.0000 O   0  0  0  0  0  0  0  0  0  0  0  0
   -0.6625    0.7833    0.0000 O   0  0  0  0  0  0  0  0  0  0  0  0
   -2.2458    0.8208    0.0000 O   0  0  0  0  0  0  0  0  0  0  0  0
   -2.2458   -0.2000    0.0000 C   0  0  0  0  0  0  0  0  0  0  0  0
   -2.6458    0.0208    0.0000 C   0  0  0  0  0  0  0  0  0  0  0  0
  2  1  1  0  0  0  0
  3  1  2  0  0  0  0
  4  1  1  0  0  0  0
  5  7  1  0  0  0  0
  6  3  1  0  0  0  0
  7  8  1  0  0  0  0
  8  2  1  0  0  0  0
  9 10  1  0  0  0  0
 10  4  2  0  0  0  0
 11 13  1  0  0  0  0
 12  5  2  0  0  0  0
 13  7  2  0  0  0  0
 14  2  2  0  0  0  0
 15  3  1  0  0  0  0
 16  9  1  0  0  0  0
 17 10  1  0  0  0  0
 18 17  1  0  0  0  0
  9  6  2  0  0  0  0
 12 11  1  0  0  0  0
M  END
> <#>
1289

> <PLATE>
LAT017

> <ROW>
A

> <COL>
3

> <COORD>
A03

> <LATID>
LAT017A03

> <Supplier>
Chembridge

> <Suplier_CAT#>
6872035

> <Name>
Novel

> <Concentration_(mM)>
2.5

> <IC50_(µM)>
>100

> <Yeast_Active?>
-

> <Pubchem_CID>
728415

$$$$
