
  -ISIS-  08130814242D

 22 23  0  0  0  0  0  0  0  0999 V2000
    0.5667    0.5958    0.0000 N   0  0  0  0  0  0  0  0  0  0  0  0
   -0.4500    0.5958    0.0000 C   0  0  0  0  0  0  0  0  0  0  0  0
    0.0667    0.3125    0.0000 N   0  0  0  0  0  0  0  0  0  0  0  0
    1.0500    0.3125    0.0000 C   0  0  0  0  0  0  0  0  0  0  0  0
   -0.9500    0.3125    0.0000 C   0  0  0  0  0  0  0  0  0  0  0  0
    1.5500    0.6125    0.0000 C   0  0  0  0  0  0  0  0  0  0  0  0
   -2.4500   -0.5292    0.0000 C   0  0  3  0  0  0  0  0  0  0  0  0
   -1.9333   -0.2667    0.0000 C   0  0  0  0  0  0  0  0  0  0  0  0
   -0.4500    1.1708    0.0000 O   0  0  0  0  0  0  0  0  0  0  0  0
    2.5500    0.6125    0.0000 N   0  0  0  0  0  0  0  0  0  0  0  0
   -1.4333    0.5958    0.0000 C   0  0  0  0  0  0  0  0  0  0  0  0
   -0.9500   -0.2667    0.0000 C   0  0  0  0  0  0  0  0  0  0  0  0
   -1.4333   -0.5500    0.0000 C   0  0  0  0  0  0  0  0  0  0  0  0
   -1.9333    0.2958    0.0000 C   0  0  0  0  0  0  0  0  0  0  0  0
    2.0500    0.3333    0.0000 C   0  0  0  0  0  0  0  0  0  0  0  0
    1.5500    1.1708    0.0000 C   0  0  0  0  0  0  0  0  0  0  0  0
   -2.1958   -1.0500    0.0000 C   0  0  0  0  0  0  0  0  0  0  0  0
   -2.9708   -0.7875    0.0000 C   0  0  0  0  0  0  0  0  0  0  0  0
   -2.7125   -0.0292    0.0000 C   0  0  0  0  0  0  0  0  0  0  0  0
    2.5500    1.1708    0.0000 C   0  0  0  0  0  0  0  0  0  0  0  0
    1.0500   -0.2667    0.0000 C   0  0  0  0  0  0  0  0  0  0  0  0
    2.0500    1.4500    0.0000 C   0  0  0  0  0  0  0  0  0  0  0  0
  2  3  1  0  0  0  0
  3  1  1  0  0  0  0
  4  1  2  0  0  0  0
  5  2  1  0  0  0  0
  6  4  1  0  0  0  0
  7  8  1  0  0  0  0
  8 13  1  0  0  0  0
  9  2  2  0  0  0  0
 10 15  2  0  0  0  0
 11  5  2  0  0  0  0
 12  5  1  0  0  0  0
 13 12  2  0  0  0  0
 14 11  1  0  0  0  0
 15  6  1  0  0  0  0
 16  6  2  0  0  0  0
 17  7  1  0  0  0  0
 18  7  1  0  0  0  0
 19  7  1  0  0  0  0
 20 22  2  0  0  0  0
 21  4  1  0  0  0  0
 22 16  1  0  0  0  0
 20 10  1  0  0  0  0
  8 14  2  0  0  0  0
M  END
> <#>
1651

> <PLATE>
LAT021

> <ROW>
C

> <COL>
8

> <COORD>
C08

> <LATID>
LAT021C08

> <Supplier>
Chembridge

> <Suplier_CAT#>
5527683

> <Name>
Novel

> <Concentration_(mM)>
2.5

> <IC50_(µM)>
inactive

> <Yeast_Active?>
-

> <Pubchem_CID>
870994

$$$$
