
  -ISIS-  08130814242D

 29 32  0  0  0  0  0  0  0  0999 V2000
   -2.8708    0.2958    0.0000 N   0  0  3  0  0  0  0  0  0  0  0  0
   -2.2000   -0.1167    0.0000 C   0  0  0  0  0  0  0  0  0  0  0  0
   -2.8708    1.0708    0.0000 C   0  0  0  0  0  0  0  0  0  0  0  0
   -1.5125    0.2958    0.0000 C   0  0  3  0  0  0  0  0  0  0  0  0
   -1.5125    1.0708    0.0000 C   0  0  0  0  0  0  0  0  0  0  0  0
    4.1000   -2.8500    0.0000 N   0  3  0  0  0  0  0  0  0  0  0  0
   -0.7000   -0.1375    0.0000 N   0  0  3  0  0  0  0  0  0  0  0  0
   -3.6500   -0.1375    0.0000 C   0  0  0  0  0  0  0  0  0  0  0  0
    0.8542   -1.0667    0.0000 N   0  0  3  0  0  0  0  0  0  0  0  0
    3.3167   -2.4000    0.0000 C   0  0  0  0  0  0  0  0  0  0  0  0
   -2.2000   -1.0292    0.0000 O   0  0  0  0  0  0  0  0  0  0  0  0
    4.1000   -3.7042    0.0000 O   0  5  0  0  0  0  0  0  0  0  0  0
    1.7292   -1.5000    0.0000 C   0  0  0  0  0  0  0  0  0  0  0  0
   -3.6500    1.5208    0.0000 O   0  0  0  0  0  0  0  0  0  0  0  0
    4.8792   -2.4000    0.0000 O   0  0  0  0  0  0  0  0  0  0  0  0
   -0.7000   -1.0667    0.0000 C   0  0  0  0  0  0  0  0  0  0  0  0
    0.0792    0.2958    0.0000 C   0  0  0  0  0  0  0  0  0  0  0  0
    0.8542   -0.1375    0.0000 C   0  0  0  0  0  0  0  0  0  0  0  0
    0.0792   -1.5000    0.0000 C   0  0  0  0  0  0  0  0  0  0  0  0
   -3.6500   -1.0667    0.0000 C   0  0  0  0  0  0  0  0  0  0  0  0
    3.3167   -1.5000    0.0000 C   0  0  0  0  0  0  0  0  0  0  0  0
    2.5542   -2.8292    0.0000 C   0  0  0  0  0  0  0  0  0  0  0  0
    1.7292   -2.4000    0.0000 C   0  0  0  0  0  0  0  0  0  0  0  0
    2.5375   -1.0500    0.0000 C   0  0  0  0  0  0  0  0  0  0  0  0
   -2.8708   -1.5167    0.0000 F   0  0  0  0  0  0  0  0  0  0  0  0
   -4.4708    0.3125    0.0000 C   0  0  0  0  0  0  0  0  0  0  0  0
   -4.4708   -1.5167    0.0000 C   0  0  0  0  0  0  0  0  0  0  0  0
   -5.2458   -0.1375    0.0000 C   0  0  0  0  0  0  0  0  0  0  0  0
   -5.2458   -1.0667    0.0000 C   0  0  0  0  0  0  0  0  0  0  0  0
  2  1  1  0  0  0  0
  3  1  1  0  0  0  0
  4  2  1  0  0  0  0
  5  3  1  0  0  0  0
  6 10  1  0  0  0  0
  7  4  1  0  0  0  0
  8  1  1  0  0  0  0
  9 18  1  0  0  0  0
 10 21  2  0  0  0  0
 11  2  2  0  0  0  0
 12  6  1  0  0  0  0
 13  9  1  0  0  0  0
 14  3  2  0  0  0  0
 15  6  2  0  0  0  0
 16  7  1  0  0  0  0
 17  7  1  0  0  0  0
 18 17  1  0  0  0  0
 19 16  1  0  0  0  0
 20  8  2  0  0  0  0
 21 24  1  0  0  0  0
 22 23  2  0  0  0  0
 23 13  1  0  0  0  0
 24 13  2  0  0  0  0
 25 20  1  0  0  0  0
 26  8  1  0  0  0  0
 27 20  1  0  0  0  0
 28 26  2  0  0  0  0
 29 28  1  0  0  0  0
  4  5  1  0  0  0  0
 27 29  2  0  0  0  0
 19  9  1  0  0  0  0
 10 22  1  0  0  0  0
M  CHG  2   6   1  12  -1
M  END
> <#>
929

> <PLATE>
LAT012

> <ROW>
A

> <COL>
8

> <COORD>
A08

> <LATID>
LAT012A08

> <Supplier>
Chembridge

> <Suplier_CAT#>
5754492

> <Name>
Novel

> <Sec_Name>
239_H09

> <Concentration_(mM)>
2.5

> <IC50_(µM)>
28

> <Yeast_Active?>
-

> <Pubchem_CID>
NULL

$$$$
