
  -ISIS-  08130814242D

 32 35  0  0  0  0  0  0  0  0999 V2000
    4.1792   -2.3542    0.0000 C   0  0  0  0  0  0  0  0  0  0  0  0
    2.8875   -2.3542    0.0000 C   0  0  0  0  0  0  0  0  0  0  0  0
    3.5292   -1.9792    0.0000 C   0  0  3  0  0  0  0  0  0  0  0  0
    2.8875   -3.1042    0.0000 C   0  0  0  0  0  0  0  0  0  0  0  0
    4.1792   -3.1042    0.0000 C   0  0  0  0  0  0  0  0  0  0  0  0
    3.5292   -3.4792    0.0000 N   0  0  0  0  0  0  0  0  0  0  0  0
    2.2375   -1.9792    0.0000 C   0  0  0  0  0  0  0  0  0  0  0  0
    3.5292   -1.2375    0.0000 C   0  0  0  0  0  0  0  0  0  0  0  0
    4.8375   -1.9792    0.0000 C   0  0  0  0  0  0  0  0  0  0  0  0
    3.5292    0.2500    0.0000 C   0  0  0  0  0  0  0  0  0  0  0  0
    4.1792   -0.1042    0.0000 C   0  0  0  0  0  0  0  0  0  0  0  0
    2.8875   -0.1042    0.0000 C   0  0  0  0  0  0  0  0  0  0  0  0
    2.2375   -3.4792    0.0000 C   0  0  0  0  0  0  0  0  0  0  0  0
    1.5875   -3.1042    0.0000 C   0  0  3  0  0  0  0  0  0  0  0  0
    1.5875   -2.3542    0.0000 C   0  0  0  0  0  0  0  0  0  0  0  0
    4.1792   -0.8542    0.0000 C   0  0  0  0  0  0  0  0  0  0  0  0
    2.8875   -0.8542    0.0000 C   0  0  0  0  0  0  0  0  0  0  0  0
    2.2375   -1.2292    0.0000 O   0  0  0  0  0  0  0  0  0  0  0  0
    4.8375   -1.2292    0.0000 O   0  0  0  0  0  0  0  0  0  0  0  0
    0.9500   -3.4792    0.0000 C   0  0  0  0  0  0  0  0  0  0  0  0
    4.8292    0.2500    0.0000 Br  0  0  0  0  0  0  0  0  0  0  0  0
    3.5292    1.0000    0.0000 O   0  0  0  0  0  0  0  0  0  0  0  0
    5.4875   -2.3500    0.0000 O   0  0  0  0  0  0  0  0  0  0  0  0
    2.2375    0.2500    0.0000 O   0  0  0  0  0  0  0  0  0  0  0  0
    4.8375   -3.4875    0.0000 C   0  0  0  0  0  0  0  0  0  0  0  0
    0.9500   -4.2292    0.0000 C   0  0  0  0  0  0  0  0  0  0  0  0
    0.3000   -3.1042    0.0000 C   0  0  0  0  0  0  0  0  0  0  0  0
    2.2375    1.0000    0.0000 C   0  0  0  0  0  0  0  0  0  0  0  0
    5.4875   -3.1042    0.0000 C   0  0  0  0  0  0  0  0  0  0  0  0
    0.3000   -4.6042    0.0000 C   0  0  0  0  0  0  0  0  0  0  0  0
   -0.3458   -3.4792    0.0000 C   0  0  0  0  0  0  0  0  0  0  0  0
   -0.3458   -4.2292    0.0000 C   0  0  0  0  0  0  0  0  0  0  0  0
  2  3  1  0  0  0  0
  3  1  1  0  0  0  0
  4  6  1  0  0  0  0
  5  1  2  0  0  0  0
  6  5  1  0  0  0  0
  7  2  1  0  0  0  0
  8  3  1  0  0  0  0
  9  1  1  0  0  0  0
 10 12  1  0  0  0  0
 11 16  1  0  0  0  0
 12 17  2  0  0  0  0
 13  4  1  0  0  0  0
 14 13  1  0  0  0  0
 15  7  1  0  0  0  0
 16  8  2  0  0  0  0
 17  8  1  0  0  0  0
 18  7  2  0  0  0  0
 19  9  2  0  0  0  0
 20 14  1  0  0  0  0
 21 11  1  0  0  0  0
 22 10  1  0  0  0  0
 23  9  1  0  0  0  0
 24 12  1  0  0  0  0
 25  5  1  0  0  0  0
 26 20  2  0  0  0  0
 27 20  1  0  0  0  0
 28 24  1  0  0  0  0
 29 23  1  0  0  0  0
 30 26  1  0  0  0  0
 31 27  2  0  0  0  0
 32 31  1  0  0  0  0
  4  2  2  0  0  0  0
 10 11  2  0  0  0  0
 14 15  1  0  0  0  0
 30 32  2  0  0  0  0
M  END
> <#>
550

> <PLATE>
LAT007

> <ROW>
F

> <COL>
10

> <COORD>
F10

> <LATID>
LAT007F10

> <Supplier>
Chembridge

> <Suplier_CAT#>
5471765

> <Name>
Novel

> <Sec_Name>
135_C07

> <Concentration_(mM)>
2.5

> <IC50_(µM)>
88

> <Yeast_Active?>
-

> <Pubchem_CID>
2847454

$$$$
