
  -ISIS-  08130814242D

 21 22  0  0  0  0  0  0  0  0999 V2000
    3.9625   -0.4042    0.0000 C   0  0  0  0  0  0  0  0  0  0  0  0
    3.2625    0.0083    0.0000 C   0  0  3  0  0  0  0  0  0  0  0  0
    4.7292    0.0333    0.0000 N   0  0  0  0  0  0  0  0  0  0  0  0
    2.5542   -0.4000    0.0000 O   0  0  0  0  0  0  0  0  0  0  0  0
    6.8125   -0.3750    0.0000 N   0  0  0  0  0  0  0  0  0  0  0  0
    3.9500   -1.2917    0.0000 O   0  0  0  0  0  0  0  0  0  0  0  0
    1.8500    0.0208    0.0000 C   0  0  0  0  0  0  0  0  0  0  0  0
    5.4167   -0.3667    0.0000 C   0  0  0  0  0  0  0  0  0  0  0  0
    6.1167    0.0333    0.0000 C   0  0  0  0  0  0  0  0  0  0  0  0
    0.4417    0.8458    0.0000 C   0  0  0  0  0  0  0  0  0  0  0  0
   -0.2708    1.2625    0.0000 Cl  0  0  0  0  0  0  0  0  0  0  0  0
    1.1417   -0.3875    0.0000 C   0  0  0  0  0  0  0  0  0  0  0  0
    1.8625    0.8333    0.0000 C   0  0  0  0  0  0  0  0  0  0  0  0
    1.1542    1.2458    0.0000 C   0  0  0  0  0  0  0  0  0  0  0  0
    0.4417    0.0250    0.0000 C   0  0  0  0  0  0  0  0  0  0  0  0
    3.0417   -0.7917    0.0000 C   0  0  0  0  0  0  0  0  0  0  0  0
    3.2667    0.8208    0.0000 C   0  0  0  0  0  0  0  0  0  0  0  0
    7.5042    0.0333    0.0000 C   0  0  0  0  0  0  0  0  0  0  0  0
    6.1167    0.8375    0.0000 C   0  0  0  0  0  0  0  0  0  0  0  0
    7.5167    0.8333    0.0000 C   0  0  0  0  0  0  0  0  0  0  0  0
    6.8167    1.2333    0.0000 C   0  0  0  0  0  0  0  0  0  0  0  0
  2  1  1  0  0  0  0
  3  1  1  0  0  0  0
  4  2  1  0  0  0  0
  5  9  1  0  0  0  0
  6  1  2  0  0  0  0
  7  4  1  0  0  0  0
  8  3  1  0  0  0  0
  9  8  1  0  0  0  0
 10 14  2  0  0  0  0
 11 10  1  0  0  0  0
 12  7  1  0  0  0  0
 13  7  2  0  0  0  0
 14 13  1  0  0  0  0
 15 12  2  0  0  0  0
 16  2  1  0  0  0  0
 17  2  1  0  0  0  0
 18  5  2  0  0  0  0
 19  9  2  0  0  0  0
 20 21  2  0  0  0  0
 21 19  1  0  0  0  0
 15 10  1  0  0  0  0
 18 20  1  0  0  0  0
M  END
> <#>
1557

> <PLATE>
LAT020

> <ROW>
E

> <COL>
6

> <COORD>
E06

> <LATID>
LAT020E06

> <Supplier>
Chembridge

> <Suplier_CAT#>
7320598

> <Name>
Novel

> <Concentration_(mM)>
2.5

> <IC50_(µM)>
96

> <Yeast_Active?>
-

> <Pubchem_CID>
893182

$$$$
