
  -ISIS-  08130814242D

 29 31  0  0  0  0  0  0  0  0999 V2000
    3.5875   -2.8542    0.0000 S   0  0  3  0  0  0  0  0  0  0  0  0
    3.6000   -2.1000    0.0000 N   0  0  3  0  0  0  0  0  0  0  0  0
    4.2500   -1.7292    0.0000 C   0  0  0  0  0  0  0  0  0  0  0  0
    4.9000   -2.1042    0.0000 C   0  0  0  0  0  0  0  0  0  0  0  0
    4.4500   -2.8500    0.0000 O   0  0  0  0  0  0  0  0  0  0  0  0
    3.8167   -3.6167    0.0000 O   0  0  0  0  0  0  0  0  0  0  0  0
    2.9375   -1.7167    0.0000 C   0  0  0  0  0  0  0  0  0  0  0  0
    5.5500   -1.7292    0.0000 N   0  0  0  0  0  0  0  0  0  0  0  0
    6.2000   -2.1042    0.0000 C   0  0  0  0  0  0  0  0  0  0  0  0
    4.9000   -2.8542    0.0000 O   0  0  0  0  0  0  0  0  0  0  0  0
    6.8500   -1.7375    0.0000 C   0  0  0  0  0  0  0  0  0  0  0  0
    0.9875   -0.6000    0.0000 O   0  0  0  0  0  0  0  0  0  0  0  0
    2.9375   -0.9667    0.0000 C   0  0  0  0  0  0  0  0  0  0  0  0
    2.2875   -2.1000    0.0000 C   0  0  0  0  0  0  0  0  0  0  0  0
    2.9375   -3.2292    0.0000 C   0  0  0  0  0  0  0  0  0  0  0  0
    1.6375   -0.9667    0.0000 C   0  0  0  0  0  0  0  0  0  0  0  0
    7.5000   -2.1042    0.0000 C   0  0  0  0  0  0  0  0  0  0  0  0
    2.2875   -0.5875    0.0000 C   0  0  0  0  0  0  0  0  0  0  0  0
    1.6375   -1.7167    0.0000 C   0  0  0  0  0  0  0  0  0  0  0  0
    0.3375   -0.9667    0.0000 C   0  0  0  0  0  0  0  0  0  0  0  0
    8.1500   -1.7375    0.0000 Cl  0  0  0  0  0  0  0  0  0  0  0  0
    6.8500   -3.2375    0.0000 C   0  0  0  0  0  0  0  0  0  0  0  0
    6.2000   -2.8542    0.0000 C   0  0  0  0  0  0  0  0  0  0  0  0
    7.5000   -2.8542    0.0000 C   0  0  0  0  0  0  0  0  0  0  0  0
    0.3375   -1.7167    0.0000 C   0  0  0  0  0  0  0  0  0  0  0  0
   -0.3000   -0.6000    0.0000 C   0  0  0  0  0  0  0  0  0  0  0  0
   -0.9500   -0.9792    0.0000 C   0  0  0  0  0  0  0  0  0  0  0  0
   -0.3000   -2.1000    0.0000 C   0  0  0  0  0  0  0  0  0  0  0  0
   -0.9500   -1.7292    0.0000 C   0  0  0  0  0  0  0  0  0  0  0  0
  2  1  1  0  0  0  0
  3  2  1  0  0  0  0
  4  3  1  0  0  0  0
  5  1  2  0  0  0  0
  6  1  2  0  0  0  0
  7  2  1  0  0  0  0
  8  4  1  0  0  0  0
  9  8  1  0  0  0  0
 10  4  2  0  0  0  0
 11  9  1  0  0  0  0
 12 16  1  0  0  0  0
 13  7  2  0  0  0  0
 14  7  1  0  0  0  0
 15  1  1  0  0  0  0
 16 19  1  0  0  0  0
 17 11  2  0  0  0  0
 18 13  1  0  0  0  0
 19 14  2  0  0  0  0
 20 12  1  0  0  0  0
 21 17  1  0  0  0  0
 22 23  1  0  0  0  0
 23  9  2  0  0  0  0
 24 22  2  0  0  0  0
 25 20  2  0  0  0  0
 26 20  1  0  0  0  0
 27 26  2  0  0  0  0
 28 25  1  0  0  0  0
 29 27  1  0  0  0  0
 18 16  2  0  0  0  0
 17 24  1  0  0  0  0
 28 29  2  0  0  0  0
M  END
> <#>
764

> <PLATE>
LAT010

> <ROW>
D

> <COL>
7

> <COORD>
D07

> <LATID>
LAT010D07

> <Supplier>
Chembridge

> <Suplier_CAT#>
5609054

> <Name>
Novel

> <Sec_Name>
184_F08

> <Concentration_(mM)>
2.5

> <IC50_(µM)>
>100

> <Yeast_Active?>
-

> <Pubchem_CID>
1351296

$$$$
