
  -ISIS-  08130814242D

 26 29  0  0  0  0  0  0  0  0999 V2000
    1.1042   -1.7250    0.0000 C   0  0  0  0  0  0  0  0  0  0  0  0
    1.0292   -2.4667    0.0000 N   0  0  0  0  0  0  0  0  0  0  0  0
    0.4250   -1.4167    0.0000 N   0  0  0  0  0  0  0  0  0  0  0  0
    4.5042   -1.3250    0.0000 C   0  0  0  0  0  0  0  0  0  0  0  0
    0.2917   -2.6250    0.0000 C   0  0  0  0  0  0  0  0  0  0  0  0
   -0.0750   -1.9750    0.0000 C   0  0  0  0  0  0  0  0  0  0  0  0
    3.8542   -1.7000    0.0000 N   0  0  0  0  0  0  0  0  0  0  0  0
    1.7625   -1.3500    0.0000 C   0  0  0  0  0  0  0  0  0  0  0  0
    5.1542   -1.7000    0.0000 C   0  0  0  0  0  0  0  0  0  0  0  0
    3.0542   -1.3500    0.0000 C   0  0  0  0  0  0  0  0  0  0  0  0
    2.4042   -1.7250    0.0000 C   0  0  0  0  0  0  0  0  0  0  0  0
    4.5042   -0.5750    0.0000 O   0  0  0  0  0  0  0  0  0  0  0  0
    5.8042   -1.3250    0.0000 C   0  0  0  0  0  0  0  0  0  0  0  0
    6.4542   -1.7042    0.0000 C   0  0  0  0  0  0  0  0  0  0  0  0
    7.1042   -1.3292    0.0000 O   0  0  0  0  0  0  0  0  0  0  0  0
    1.7625   -0.6000    0.0000 C   0  0  0  0  0  0  0  0  0  0  0  0
    5.1542   -2.4500    0.0000 C   0  0  0  0  0  0  0  0  0  0  0  0
    2.4125   -0.2167    0.0000 C   0  0  0  0  0  0  0  0  0  0  0  0
   -0.0833   -3.2750    0.0000 C   0  0  0  0  0  0  0  0  0  0  0  0
    5.8042   -2.8250    0.0000 C   0  0  0  0  0  0  0  0  0  0  0  0
   -0.8250   -1.9750    0.0000 C   0  0  0  0  0  0  0  0  0  0  0  0
    3.0625   -0.6042    0.0000 C   0  0  0  0  0  0  0  0  0  0  0  0
    6.4542   -2.4542    0.0000 C   0  0  0  0  0  0  0  0  0  0  0  0
    7.7542   -1.7042    0.0000 C   0  0  0  0  0  0  0  0  0  0  0  0
   -1.2083   -2.6250    0.0000 C   0  0  0  0  0  0  0  0  0  0  0  0
   -0.8333   -3.2750    0.0000 C   0  0  0  0  0  0  0  0  0  0  0  0
  2  1  2  0  0  0  0
  3  1  1  0  0  0  0
  4  7  1  0  0  0  0
  5  2  1  0  0  0  0
  6  3  1  0  0  0  0
  7 10  1  0  0  0  0
  8  1  1  0  0  0  0
  9  4  1  0  0  0  0
 10 11  2  0  0  0  0
 11  8  1  0  0  0  0
 12  4  2  0  0  0  0
 13  9  2  0  0  0  0
 14 13  1  0  0  0  0
 15 14  1  0  0  0  0
 16  8  2  0  0  0  0
 17  9  1  0  0  0  0
 18 16  1  0  0  0  0
 19  5  1  0  0  0  0
 20 17  2  0  0  0  0
 21  6  1  0  0  0  0
 22 18  2  0  0  0  0
 23 20  1  0  0  0  0
 24 15  1  0  0  0  0
 25 21  2  0  0  0  0
 26 19  2  0  0  0  0
  6  5  2  0  0  0  0
 10 22  1  0  0  0  0
 25 26  1  0  0  0  0
 23 14  2  0  0  0  0
M  END
> <#>
962

> <PLATE>
LAT013

> <ROW>
B

> <COL>
2

> <COORD>
B02

> <LATID>
LAT013B02

> <Supplier>
Chembridge

> <Suplier_CAT#>
5745225

> <Name>
Novel

> <Sec_Name>
237_A03

> <Concentration_(mM)>
2.5

> <IC50_(µM)>
8.4

> <Yeast_Active?>
-

> <Pubchem_CID>
NULL

$$$$
