
  -ISIS-  08130814242D

 58 64  0  0  0  0  0  0  0  0999 V2000
    2.0375   -7.7917    0.0000 N   0  3  0  0  0  0  0  0  0  0  0  0
    5.8542   -7.6625    0.0000 N   0  0  3  0  0  0  0  0  0  0  0  0
    5.5500   -6.9750    0.0000 C   0  0  0  0  0  0  0  0  0  0  0  0
    4.6417   -7.7875    0.0000 C   0  0  0  0  0  0  0  0  0  0  0  0
    5.2917   -8.1625    0.0000 C   0  0  0  0  0  0  0  0  0  0  0  0
    4.8042   -7.0500    0.0000 C   0  0  0  0  0  0  0  0  0  0  0  0
    1.3917   -8.1667    0.0000 C   0  0  0  0  0  0  0  0  0  0  0  0
    3.9917   -8.1625    0.0000 C   0  0  0  0  0  0  0  0  0  0  0  0
    2.6875   -8.1667    0.0000 C   0  0  0  0  0  0  0  0  0  0  0  0
    1.3917   -8.9167    0.0000 C   0  0  0  0  0  0  0  0  0  0  0  0
    3.3417   -7.7875    0.0000 C   0  0  0  0  0  0  0  0  0  0  0  0
    0.1000   -8.9167    0.0000 C   0  0  0  0  0  0  0  0  0  0  0  0
    0.7500   -9.2917    0.0000 C   0  0  0  0  0  0  0  0  0  0  0  0
    0.7500   -7.7917    0.0000 C   0  0  0  0  0  0  0  0  0  0  0  0
    6.5875   -7.7792    0.0000 C   0  0  0  0  0  0  0  0  0  0  0  0
   -0.5583   -9.3000    0.0000 N   0  0  3  0  0  0  0  0  0  0  0  0
    0.1000   -8.1667    0.0000 C   0  0  0  0  0  0  0  0  0  0  0  0
    2.0375   -9.2917    0.0000 C   0  0  0  0  0  0  0  0  0  0  0  0
    2.6875   -8.9167    0.0000 C   0  0  0  0  0  0  0  0  0  0  0  0
    2.0375   -7.0417    0.0000 C   0  0  0  0  0  0  0  0  0  0  0  0
    5.9250   -6.3250    0.0000 C   0  0  0  0  0  0  0  0  0  0  0  0
    5.3667   -8.9125    0.0000 C   0  0  0  0  0  0  0  0  0  0  0  0
   -0.5583  -10.0500    0.0000 C   0  0  0  0  0  0  0  0  0  0  0  0
   -1.2083   -8.9250    0.0000 C   0  0  0  0  0  0  0  0  0  0  0  0
    6.8500   -8.4750    0.0000 C   0  0  0  0  0  0  0  0  0  0  0  0
    7.0625   -7.2000    0.0000 C   0  0  0  0  0  0  0  0  0  0  0  0
    7.8000   -7.3250    0.0000 C   0  0  0  0  0  0  0  0  0  0  0  0
    7.5917   -8.6000    0.0000 C   0  0  0  0  0  0  0  0  0  0  0  0
    8.0667   -8.0125    0.0000 C   0  0  0  0  0  0  0  0  0  0  0  0
   10.1167   -7.5792    0.0000 C   0  0  0  0  0  0  0  0  0  0  0  0
   12.6625  -10.0292    0.0000 C   0  0  0  0  0  0  0  0  0  0  0  0
   11.8125   -9.2250    0.0000 C   0  0  0  0  0  0  0  0  0  0  0  0
   10.9542   -8.4125    0.0000 C   0  0  0  0  0  0  0  0  0  0  0  0
   10.7792   -7.7667    0.0000 C   0  0  0  0  0  0  0  0  0  0  0  0
   12.4625   -9.3792    0.0000 C   0  0  0  0  0  0  0  0  0  0  0  0
   11.6167   -8.5667    0.0000 C   0  0  0  0  0  0  0  0  0  0  0  0
   12.1917  -10.5167    0.0000 C   0  0  0  0  0  0  0  0  0  0  0  0
    9.6375   -8.0625    0.0000 C   0  0  0  0  0  0  0  0  0  0  0  0
    9.9292   -6.9250    0.0000 C   0  0  0  0  0  0  0  0  0  0  0  0
   13.3292  -10.1875    0.0000 C   0  0  0  0  0  0  0  0  0  0  0  0
   10.4667   -8.8917    0.0000 C   0  0  0  0  0  0  0  0  0  0  0  0
   11.3417   -9.7167    0.0000 C   0  0  0  0  0  0  0  0  0  0  0  0
    9.8167   -8.7167    0.0000 C   0  0  0  0  0  0  0  0  0  0  0  0
   11.5375  -10.3625    0.0000 C   0  0  0  0  0  0  0  0  0  0  0  0
   10.4125   -6.4375    0.0000 O   0  5  0  0  0  0  0  0  0  0  0  0
    9.2792   -6.7500    0.0000 O   0  0  0  0  0  0  0  0  0  0  0  0
   13.7917   -9.6875    0.0000 O   0  0  0  0  0  0  0  0  0  0  0  0
   12.9167   -8.8792    0.0000 O   0  0  0  0  0  0  0  0  0  0  0  0
   11.2667   -7.2917    0.0000 O   0  0  0  0  0  0  0  0  0  0  0  0
   13.5292  -10.8417    0.0000 O   0  0  0  0  0  0  0  0  0  0  0  0
   10.6417   -9.5542    0.0000 C   0  0  0  0  0  0  0  0  0  0  0  0
   10.8167   -9.5917    0.0000 C   0  0  0  0  0  0  0  0  0  0  0  0
    9.3292   -9.2042    0.0000 C   0  0  0  0  0  0  0  0  0  0  0  0
   11.0667  -10.8542    0.0000 C   0  0  0  0  0  0  0  0  0  0  0  0
   10.3500  -10.1000    0.0000 C   0  0  0  0  0  0  0  0  0  0  0  0
   10.1750  -10.0292    0.0000 C   0  0  0  0  0  0  0  0  0  0  0  0
   10.4167  -10.7000    0.0000 C   0  0  0  0  0  0  0  0  0  0  0  0
    9.5042   -9.8500    0.0000 C   0  0  0  0  0  0  0  0  0  0  0  0
 24 16  1  0  0  0  0
 25 15  1  0  0  0  0
 26 15  2  0  0  0  0
 27 26  1  0  0  0  0
 28 25  2  0  0  0  0
 29 28  1  0  0  0  0
 10 18  2  0  0  0  0
 13 12  2  0  0  0  0
  2  3  1  0  0  0  0
 27 29  2  0  0  0  0
  2  5  1  0  0  0  0
  3  6  2  0  0  0  0
  4  8  1  0  0  0  0
  5  4  2  0  0  0  0
  6  4  1  0  0  0  0
  7  1  2  0  0  0  0
  8 11  2  0  0  0  0
  9  1  1  0  0  0  0
 10  7  1  0  0  0  0
 11  9  1  0  0  0  0
 12 17  1  0  0  0  0
 13 10  1  0  0  0  0
 14  7  1  0  0  0  0
 15  2  1  0  0  0  0
 16 12  1  0  0  0  0
 17 14  2  0  0  0  0
 18 19  1  0  0  0  0
 19  9  2  0  0  0  0
 20  1  1  0  0  0  0
 21  3  1  0  0  0  0
 22  5  1  0  0  0  0
 23 16  1  0  0  0  0
 31 35  2  0  0  0  0
 32 36  1  0  0  0  0
 33 34  1  0  0  0  0
 34 30  2  0  0  0  0
 35 32  1  0  0  0  0
 36 33  1  0  0  0  0
 37 44  2  0  0  0  0
 38 30  1  0  0  0  0
 39 30  1  0  0  0  0
 40 31  1  0  0  0  0
 41 43  1  0  0  0  0
 42 32  2  0  0  0  0
 43 38  2  0  0  0  0
 44 42  1  0  0  0  0
 45 39  1  0  0  0  0
 46 39  2  0  0  0  0
 47 40  2  0  0  0  0
 48 35  1  0  0  0  0
 49 34  1  0  0  0  0
 50 40  1  0  0  0  0
 51 41  1  0  0  0  0
 52 42  1  0  0  0  0
 53 43  1  0  0  0  0
 54 44  1  0  0  0  0
 55 52  2  0  0  0  0
 56 58  1  0  0  0  0
 57 55  1  0  0  0  0
 58 53  2  0  0  0  0
 41 33  2  0  0  0  0
 56 51  2  0  0  0  0
 37 31  1  0  0  0  0
 57 54  2  0  0  0  0
M  CHG  2   1   1  45  -1
M  END
> <#>
102

> <PLATE>
LAT002

> <ROW>
F

> <COL>
4

> <COORD>
F04

> <LATID>
LAT002F04

> <Supplier>
Microsource

> <Suplier_CAT#>
01500521

> <Name>
Pyrvinium Pamoate

> <Concentration_(mM)>
2.5

> <IC50_(µM)>
8.1

> <Yeast_Active?>
-

> <Pubchem_CID>
5702110

> <Description>
Anthelmintic

$$$$
