
  -ISIS-  08130814242D

 22 25  0  0  0  0  0  0  0  0999 V2000
   -1.9500    0.1625    0.0000 C   0  0  0  0  0  0  0  0  0  0  0  0
   -1.9500    1.1208    0.0000 C   0  0  0  0  0  0  0  0  0  0  0  0
   -1.1125   -0.3375    0.0000 C   0  0  0  0  0  0  0  0  0  0  0  0
   -0.2708    0.1625    0.0000 N   0  0  0  0  0  0  0  0  0  0  0  0
   -1.1125    1.6000    0.0000 N   0  0  0  0  0  0  0  0  0  0  0  0
   -0.2708    1.1208    0.0000 C   0  0  0  0  0  0  0  0  0  0  0  0
   -2.7958   -0.3375    0.0000 C   0  0  3  0  0  0  0  0  0  0  0  0
   -2.7958    1.6000    0.0000 C   0  0  0  0  0  0  0  0  0  0  0  0
   -3.6333    1.1208    0.0000 C   0  0  0  0  0  0  0  0  0  0  0  0
   -3.6333    0.1625    0.0000 C   0  0  0  0  0  0  0  0  0  0  0  0
   -1.1125   -1.3000    0.0000 O   0  0  0  0  0  0  0  0  0  0  0  0
    0.5667    1.6000    0.0000 N   0  0  0  0  0  0  0  0  0  0  0  0
    1.4167    1.1000    0.0000 N   0  0  0  0  0  0  0  0  0  0  0  0
   -3.7125   -0.6375    0.0000 C   0  0  0  0  0  0  0  0  0  0  0  0
   -2.0708   -0.9792    0.0000 C   0  0  0  0  0  0  0  0  0  0  0  0
   -2.7958    2.5833    0.0000 C   0  0  0  0  0  0  0  0  0  0  0  0
   -4.4708    1.6208    0.0000 C   0  0  0  0  0  0  0  0  0  0  0  0
   -3.9333   -1.5792    0.0000 C   0  0  0  0  0  0  0  0  0  0  0  0
   -2.2708   -1.9167    0.0000 C   0  0  0  0  0  0  0  0  0  0  0  0
   -3.6333    3.0625    0.0000 C   0  0  0  0  0  0  0  0  0  0  0  0
   -4.4708    2.5833    0.0000 C   0  0  0  0  0  0  0  0  0  0  0  0
   -3.1208   -2.3000    0.0000 C   0  0  0  0  0  0  0  0  0  0  0  0
  2  1  2  0  0  0  0
  3  1  1  0  0  0  0
  4  3  1  0  0  0  0
  5  2  1  0  0  0  0
  6  4  1  0  0  0  0
  7  1  1  0  0  0  0
  8  2  1  0  0  0  0
  9 10  1  0  0  0  0
 10  7  1  0  0  0  0
 11  3  2  0  0  0  0
 12  6  1  0  0  0  0
 13 12  1  0  0  0  0
 14  7  1  0  0  0  0
 15  7  1  0  0  0  0
 16  8  2  0  0  0  0
 17  9  2  0  0  0  0
 18 14  1  0  0  0  0
 19 15  1  0  0  0  0
 20 16  1  0  0  0  0
 21 17  1  0  0  0  0
 22 19  1  0  0  0  0
  8  9  1  0  0  0  0
  6  5  2  0  0  0  0
 18 22  1  0  0  0  0
 20 21  2  0  0  0  0
M  END
> <#>
1834

> <PLATE>
LAT023

> <ROW>
B

> <COL>
11

> <COORD>
B11

> <LATID>
LAT023B11

> <Supplier>
Chembridge

> <Suplier_CAT#>
5683035

> <Name>
Novel

> <Sec_Name>
216_B06

> <Concentration_(mM)>
2.5

> <IC50_(µM)>
5

> <Yeast_Active?>
-

> <Pubchem_CID>
NULL

$$$$
