
  -ISIS-  08130814242D

 19 20  0  0  0  0  0  0  0  0999 V2000
    0.0025    3.3277    0.0000 C   0  0  0  0  0  0  0  0  0  0  0  0
    0.9234    2.4825    0.0000 C   0  0  3  0  0  0  0  0  0  0  0  0
    2.1158    2.8574    0.0000 C   0  0  0  0  0  0  0  0  0  0  0  0
    0.6518    1.2623    0.0000 C   0  0  3  0  0  0  0  0  0  0  0  0
    0.6399    0.0124    0.0000 C   0  0  0  0  0  0  0  0  0  0  0  0
    1.6441   -0.7320    0.0000 O   0  0  0  0  0  0  0  0  0  0  0  0
   -0.5525   -0.3625    0.0000 N   0  0  0  0  0  0  0  0  0  0  0  0
   -1.2776    0.6557    0.0000 C   0  0  0  0  0  0  0  0  0  0  0  0
   -0.5332    1.6599    0.0000 N   0  0  0  0  0  0  0  0  0  0  0  0
   -2.5275    0.6676    0.0000 C   0  0  0  0  0  0  0  0  0  0  0  0
   -3.1628   -0.4089    0.0000 C   0  0  0  0  0  0  0  0  0  0  0  0
   -4.4128   -0.3970    0.0000 C   0  0  0  0  0  0  0  0  0  0  0  0
   -5.0274    0.6915    0.0000 C   0  0  0  0  0  0  0  0  0  0  0  0
   -4.3921    1.7680    0.0000 C   0  0  0  0  0  0  0  0  0  0  0  0
   -3.1422    1.7561    0.0000 N   0  0  0  0  0  0  0  0  0  0  0  0
   -2.5482   -1.4973    0.0000 C   0  0  0  0  0  0  0  0  0  0  0  0
   -3.1835   -2.5738    0.0000 O   0  0  0  0  0  0  0  0  0  0  0  0
   -1.2857   -1.6218    0.0000 O   0  0  0  0  0  0  0  0  0  0  0  0
    1.8937    1.1198    0.0000 C   0  0  0  0  0  0  0  0  0  0  0  0
  1  2  1  0  0  0  0
  2  3  1  0  0  0  0
  2  4  1  0  0  0  0
  4  5  1  0  0  0  0
  5  6  2  0  0  0  0
  5  7  1  0  0  0  0
  7  8  1  0  0  0  0
  8  9  2  0  0  0  0
  4  9  1  0  0  0  0
  8 10  1  0  0  0  0
 10 11  2  0  0  0  0
 11 12  1  0  0  0  0
 12 13  2  0  0  0  0
 13 14  1  0  0  0  0
 14 15  2  0  0  0  0
 10 15  1  0  0  0  0
 11 16  1  0  0  0  0
 16 17  2  0  0  0  0
 16 18  1  0  0  0  0
  4 19  1  0  0  0  0
M  END
> <#>
542

> <PLATE>
LAT007

> <ROW>
F

> <COL>
9

> <COORD>
F09

> <LATID>
LAT007F09

> <Supplier>
ChemService

> <Suplier_CAT#>
Imazapyr

> <Name>
Imazapyr

> <Concentration_(mM)>
2.5

> <IC50_(µM)>
0.078

> <Yeast_Active?>
-

> <Pubchem_CID>
54738

$$$$
