
  -ISIS-  08130814242D

 24 27  0  0  0  0  0  0  0  0999 V2000
    4.4000    3.3750    0.0000 C   0  0  0  0  0  0  0  0  0  0  0  0
    5.0875    3.0708    0.0000 N   0  0  3  0  0  0  0  0  0  0  0  0
    4.4792    4.1167    0.0000 N   0  0  0  0  0  0  0  0  0  0  0  0
    5.5875    3.6250    0.0000 C   0  0  0  0  0  0  0  0  0  0  0  0
    5.2125    4.2667    0.0000 C   0  0  0  0  0  0  0  0  0  0  0  0
    3.7542    3.0000    0.0000 N   0  0  0  0  0  0  0  0  0  0  0  0
    5.2417    2.3333    0.0000 C   0  0  0  0  0  0  0  0  0  0  0  0
    1.8042    3.3750    0.0000 N   0  0  0  0  0  0  0  0  0  0  0  0
    3.1042    3.3750    0.0000 C   0  0  0  0  0  0  0  0  0  0  0  0
    2.4542    3.0000    0.0000 C   0  0  0  0  0  0  0  0  0  0  0  0
    5.9542    2.1083    0.0000 C   0  0  0  0  0  0  0  0  0  0  0  0
    6.3375    3.6250    0.0000 C   0  0  0  0  0  0  0  0  0  0  0  0
    5.5875    4.9167    0.0000 C   0  0  0  0  0  0  0  0  0  0  0  0
    1.1542    3.0000    0.0000 C   0  0  0  0  0  0  0  0  0  0  0  0
    2.4542    2.2500    0.0000 C   0  0  0  0  0  0  0  0  0  0  0  0
    6.1125    1.3708    0.0000 C   0  0  0  0  0  0  0  0  0  0  0  0
    6.5125    2.6083    0.0000 C   0  0  0  0  0  0  0  0  0  0  0  0
    6.7125    4.2667    0.0000 C   0  0  0  0  0  0  0  0  0  0  0  0
    6.3375    4.9167    0.0000 C   0  0  0  0  0  0  0  0  0  0  0  0
    1.1542    2.2500    0.0000 C   0  0  0  0  0  0  0  0  0  0  0  0
    6.8250    1.1375    0.0000 C   0  0  0  0  0  0  0  0  0  0  0  0
    7.2250    2.3750    0.0000 C   0  0  0  0  0  0  0  0  0  0  0  0
    1.8042    1.8750    0.0000 C   0  0  0  0  0  0  0  0  0  0  0  0
    7.3792    1.6458    0.0000 C   0  0  0  0  0  0  0  0  0  0  0  0
  2  1  1  0  0  0  0
  3  1  2  0  0  0  0
  4  2  1  0  0  0  0
  5  3  1  0  0  0  0
  6  1  1  0  0  0  0
  7  2  1  0  0  0  0
  8 10  1  0  0  0  0
  9  6  1  0  0  0  0
 10  9  1  0  0  0  0
 11  7  1  0  0  0  0
 12  4  1  0  0  0  0
 13  5  1  0  0  0  0
 14  8  2  0  0  0  0
 15 10  2  0  0  0  0
 16 11  2  0  0  0  0
 17 11  1  0  0  0  0
 18 12  2  0  0  0  0
 19 13  2  0  0  0  0
 20 23  2  0  0  0  0
 21 16  1  0  0  0  0
 22 17  2  0  0  0  0
 23 15  1  0  0  0  0
 24 22  1  0  0  0  0
  5  4  2  0  0  0  0
 18 19  1  0  0  0  0
 20 14  1  0  0  0  0
 24 21  2  0  0  0  0
M  END
> <#>
1481

> <PLATE>
LAT019

> <ROW>
A

> <COL>
7

> <COORD>
A07

> <LATID>
LAT019A07

> <Supplier>
Chembridge

> <Suplier_CAT#>
7954516

> <Name>
Novel

> <Concentration_(mM)>
2.5

> <IC50_(µM)>
inactive

> <Yeast_Active?>
-

> <Pubchem_CID>
2972994

$$$$
