
  -ISIS-  08130814242D

 32 35  0  0  0  0  0  0  0  0999 V2000
    6.4792    3.2958    0.0000 N   0  0  3  0  0  0  0  0  0  0  0  0
    6.7792    3.9708    0.0000 C   0  0  0  0  0  0  0  0  0  0  0  0
    6.2292    4.4667    0.0000 N   0  0  0  0  0  0  0  0  0  0  0  0
    5.7292    3.3625    0.0000 C   0  0  0  0  0  0  0  0  0  0  0  0
    5.5792    4.0917    0.0000 N   0  0  0  0  0  0  0  0  0  0  0  0
    6.8542    2.6458    0.0000 C   0  0  0  0  0  0  0  0  0  0  0  0
    6.4792    1.9875    0.0000 C   0  0  0  0  0  0  0  0  0  0  0  0
    5.2292    2.8083    0.0000 S   0  0  0  0  0  0  0  0  0  0  0  0
    6.8542    1.3375    0.0000 C   0  0  0  0  0  0  0  0  0  0  0  0
    3.9917    2.4083    0.0000 C   0  0  0  0  0  0  0  0  0  0  0  0
    7.5167    4.1167    0.0000 C   0  0  0  0  0  0  0  0  0  0  0  0
    7.6042    2.6458    0.0000 C   0  0  0  0  0  0  0  0  0  0  0  0
    3.2625    2.5625    0.0000 N   0  0  0  0  0  0  0  0  0  0  0  0
    7.6042    1.3375    0.0000 C   0  0  0  0  0  0  0  0  0  0  0  0
    4.2292    1.6958    0.0000 O   0  0  0  0  0  0  0  0  0  0  0  0
    7.9792    1.9875    0.0000 C   0  0  0  0  0  0  0  0  0  0  0  0
    4.5000    2.9625    0.0000 C   0  0  0  0  0  0  0  0  0  0  0  0
    6.4792    0.6875    0.0000 Cl  0  0  0  0  0  0  0  0  0  0  0  0
    2.7625    2.0083    0.0000 C   0  0  0  0  0  0  0  0  0  0  0  0
    2.0292    2.1583    0.0000 C   0  0  0  0  0  0  0  0  0  0  0  0
    0.5542    2.4708    0.0000 C   0  0  0  0  0  0  0  0  0  0  0  0
    1.5250    1.6083    0.0000 C   0  0  0  0  0  0  0  0  0  0  0  0
    1.7917    2.8750    0.0000 C   0  0  0  0  0  0  0  0  0  0  0  0
    0.7917    1.7583    0.0000 C   0  0  0  0  0  0  0  0  0  0  0  0
    1.0625    3.0333    0.0000 C   0  0  0  0  0  0  0  0  0  0  0  0
    8.0167    3.5708    0.0000 C   0  0  0  0  0  0  0  0  0  0  0  0
    7.7500    4.8375    0.0000 C   0  0  0  0  0  0  0  0  0  0  0  0
    7.9792    0.6875    0.0000 C   0  0  0  0  0  0  0  0  0  0  0  0
   -0.1750    2.6333    0.0000 C   0  0  0  0  0  0  0  0  0  0  0  0
    8.7542    3.7333    0.0000 C   0  0  0  0  0  0  0  0  0  0  0  0
    8.4792    4.9917    0.0000 C   0  0  0  0  0  0  0  0  0  0  0  0
    8.9875    4.4292    0.0000 C   0  0  0  0  0  0  0  0  0  0  0  0
  2  1  1  0  0  0  0
  3  2  2  0  0  0  0
  4  1  1  0  0  0  0
  5  4  2  0  0  0  0
  6  1  1  0  0  0  0
  7  6  2  0  0  0  0
  8  4  1  0  0  0  0
  9  7  1  0  0  0  0
 10 17  1  0  0  0  0
 11  2  1  0  0  0  0
 12  6  1  0  0  0  0
 13 10  1  0  0  0  0
 14 16  1  0  0  0  0
 15 10  2  0  0  0  0
 16 12  2  0  0  0  0
 17  8  1  0  0  0  0
 18  9  1  0  0  0  0
 19 13  1  0  0  0  0
 20 19  1  0  0  0  0
 21 25  1  0  0  0  0
 22 20  2  0  0  0  0
 23 20  1  0  0  0  0
 24 22  1  0  0  0  0
 25 23  2  0  0  0  0
 26 11  1  0  0  0  0
 27 11  2  0  0  0  0
 28 14  1  0  0  0  0
 29 21  1  0  0  0  0
 30 26  2  0  0  0  0
 31 27  1  0  0  0  0
 32 31  2  0  0  0  0
  3  5  1  0  0  0  0
 14  9  2  0  0  0  0
 32 30  1  0  0  0  0
 21 24  2  0  0  0  0
M  END
> <#>
1716

> <PLATE>
LAT022

> <ROW>
D

> <COL>
6

> <COORD>
D06

> <LATID>
LAT022D06

> <Supplier>
Chembridge

> <Suplier_CAT#>
7982032

> <Name>
Novel

> <Concentration_(mM)>
2.5

> <IC50_(µM)>
inactive 

> <Yeast_Active?>
-

> <Pubchem_CID>
2981619

$$$$
