
  -ISIS-  08130814242D

 24 28  0  0  0  0  0  0  0  0999 V2000
   -0.5958   -0.1500    0.0000 C   0  0  0  0  0  0  0  0  0  0  0  0
   -1.1333   -0.9292    0.0000 C   0  0  0  0  0  0  0  0  0  0  0  0
    0.1875   -1.8292    0.0000 C   0  0  0  0  0  0  0  0  0  0  0  0
    0.3292   -0.2292    0.0000 C   0  0  0  0  0  0  0  0  0  0  0  0
   -0.7458   -1.7542    0.0000 N   0  0  0  0  0  0  0  0  0  0  0  0
    0.7292   -1.0542    0.0000 N   0  0  3  0  0  0  0  0  0  0  0  0
   -1.1500    0.5625    0.0000 C   0  0  0  0  0  0  0  0  0  0  0  0
    0.7500   -2.5542    0.0000 N   0  0  0  0  0  0  0  0  0  0  0  0
   -2.0208   -0.6542    0.0000 C   0  0  0  0  0  0  0  0  0  0  0  0
   -2.0208    0.2833    0.0000 C   0  0  0  0  0  0  0  0  0  0  0  0
    1.5875   -1.3167    0.0000 N   0  0  0  0  0  0  0  0  0  0  0  0
    1.6375   -2.2375    0.0000 C   0  0  0  0  0  0  0  0  0  0  0  0
    0.8500    0.5208    0.0000 C   0  0  0  0  0  0  0  0  0  0  0  0
   -0.9958    1.0458    0.0000 O   0  0  0  0  0  0  0  0  0  0  0  0
    0.4500    1.3625    0.0000 C   0  0  0  0  0  0  0  0  0  0  0  0
    1.7792    0.4500    0.0000 C   0  0  0  0  0  0  0  0  0  0  0  0
    1.9000    2.0625    0.0000 C   0  0  0  0  0  0  0  0  0  0  0  0
    0.9667    2.1333    0.0000 C   0  0  0  0  0  0  0  0  0  0  0  0
    2.3167    1.2208    0.0000 C   0  0  0  0  0  0  0  0  0  0  0  0
    2.2875    2.5833    0.0000 Br  0  0  0  0  0  0  0  0  0  0  0  0
   -2.8333   -1.1292    0.0000 C   0  0  0  0  0  0  0  0  0  0  0  0
   -2.8333    0.7500    0.0000 C   0  0  0  0  0  0  0  0  0  0  0  0
   -3.6458   -0.6542    0.0000 C   0  0  0  0  0  0  0  0  0  0  0  0
   -3.6458    0.2833    0.0000 C   0  0  0  0  0  0  0  0  0  0  0  0
  2  1  1  0  0  0  0
  3  6  1  0  0  0  0
  4  1  2  0  0  0  0
  5  2  2  0  0  0  0
  6  4  1  0  0  0  0
  7  1  1  0  0  0  0
  8  3  2  0  0  0  0
  9  2  1  0  0  0  0
 10  7  1  0  0  0  0
 11  6  1  0  0  0  0
 12 11  2  0  0  0  0
 13  4  1  0  0  0  0
 14  7  2  0  0  0  0
 15 13  1  0  0  0  0
 16 13  2  0  0  0  0
 17 19  2  0  0  0  0
 18 15  2  0  0  0  0
 19 16  1  0  0  0  0
 20 17  1  0  0  0  0
 21  9  1  0  0  0  0
 22 10  1  0  0  0  0
 23 21  2  0  0  0  0
 24 22  2  0  0  0  0
 10  9  2  0  0  0  0
  5  3  1  0  0  0  0
 23 24  1  0  0  0  0
 17 18  1  0  0  0  0
  8 12  1  0  0  0  0
M  END
> <#>
1719

> <PLATE>
LAT022

> <ROW>
G

> <COL>
6

> <COORD>
G06

> <LATID>
LAT022G06

> <Supplier>
Chembridge

> <Suplier_CAT#>
6595275

> <Name>
Novel

> <Concentration_(mM)>
2.5

> <IC50_(µM)>
inactive 

> <Yeast_Active?>
-

> <Pubchem_CID>
1286467

$$$$
