
  -ISIS-  08130814242D

 20 20  0  0  0  0  0  0  0  0999 V2000
    0.9000    1.6125    0.0000 C   0  0  0  0  0  0  0  0  0  0  0  0
   -1.6125    1.3708    0.0000 C   0  0  0  0  0  0  0  0  0  0  0  0
   -1.0958    1.6500    0.0000 N   0  0  0  0  0  0  0  0  0  0  0  0
    0.4000    1.3333    0.0000 S   0  0  0  0  0  0  0  0  0  0  0  0
   -0.5958    1.3500    0.0000 C   0  0  0  0  0  0  0  0  0  0  0  0
    0.9000    2.1958    0.0000 S   0  0  0  0  0  0  0  0  0  0  0  0
    1.4000    1.3333    0.0000 N   0  0  3  0  0  0  0  0  0  0  0  0
   -1.6125    0.7958    0.0000 C   0  0  0  0  0  0  0  0  0  0  0  0
   -2.1125    1.6500    0.0000 C   0  0  0  0  0  0  0  0  0  0  0  0
   -0.5958    0.7708    0.0000 O   0  0  0  0  0  0  0  0  0  0  0  0
   -0.0958    1.6333    0.0000 C   0  0  0  0  0  0  0  0  0  0  0  0
   -2.1125    0.4958    0.0000 C   0  0  0  0  0  0  0  0  0  0  0  0
   -2.6125    1.3708    0.0000 C   0  0  0  0  0  0  0  0  0  0  0  0
   -2.6125    0.7958    0.0000 C   0  0  0  0  0  0  0  0  0  0  0  0
    1.9000    1.6125    0.0000 C   0  0  0  0  0  0  0  0  0  0  0  0
    1.4000    0.7500    0.0000 C   0  0  0  0  0  0  0  0  0  0  0  0
   -1.0958    0.4708    0.0000 C   0  0  0  0  0  0  0  0  0  0  0  0
   -3.1125    1.6500    0.0000 C   0  0  0  0  0  0  0  0  0  0  0  0
    2.4000    1.3333    0.0000 C   0  0  0  0  0  0  0  0  0  0  0  0
    0.9000    0.4708    0.0000 C   0  0  0  0  0  0  0  0  0  0  0  0
  2  3  1  0  0  0  0
  3  5  1  0  0  0  0
  4  1  1  0  0  0  0
  5 11  1  0  0  0  0
  6  1  2  0  0  0  0
  7  1  1  0  0  0  0
  8  2  2  0  0  0  0
  9  2  1  0  0  0  0
 10  5  2  0  0  0  0
 11  4  1  0  0  0  0
 12  8  1  0  0  0  0
 13  9  2  0  0  0  0
 14 13  1  0  0  0  0
 15  7  1  0  0  0  0
 16  7  1  0  0  0  0
 17  8  1  0  0  0  0
 18 13  1  0  0  0  0
 19 15  1  0  0  0  0
 20 16  1  0  0  0  0
 12 14  2  0  0  0  0
M  END
> <#>
1897

> <PLATE>
LAT024

> <ROW>
A

> <COL>
9

> <COORD>
A09

> <LATID>
LAT024A09

> <Supplier>
Chembridge

> <Suplier_CAT#>
5772674

> <Name>
S001 C06

> <Concentration_(mM)>
2.5

> <IC50_(µM)>
>100

> <Yeast_Active?>
-

> <Pubchem_CID>
1594275

$$$$
