
  -ISIS-  08130814242D

 35 38  0  0  0  0  0  0  0  0999 V2000
   11.6125    4.2125    0.0000 C   0  0  0  0  0  0  0  0  0  0  0  0
   11.4000    3.0000    0.0000 N   0  0  3  0  0  0  0  0  0  0  0  0
   10.5125    4.7917    0.0000 N   0  0  0  0  0  0  0  0  0  0  0  0
   10.1625    2.8375    0.0000 C   0  0  0  0  0  0  0  0  0  0  0  0
   12.7125    4.8250    0.0000 C   0  0  0  0  0  0  0  0  0  0  0  0
    9.6000    3.9375    0.0000 N   0  0  0  0  0  0  0  0  0  0  0  0
   12.7375    6.0625    0.0000 C   0  0  0  0  0  0  0  0  0  0  0  0
    6.2375   -2.6875    0.0000 C   0  0  0  0  0  0  0  0  0  0  0  0
    8.3875   -2.6625    0.0000 C   0  0  0  0  0  0  0  0  0  0  0  0
    5.1500   -2.0625    0.0000 C   0  0  0  0  0  0  0  0  0  0  0  0
    9.5625    1.7125    0.0000 S   0  0  0  0  0  0  0  0  0  0  0  0
    7.3000   -2.0500    0.0000 C   0  0  0  0  0  0  0  0  0  0  0  0
   13.7500    4.1875    0.0000 C   0  0  0  0  0  0  0  0  0  0  0  0
   13.8125    6.6542    0.0000 C   0  0  0  0  0  0  0  0  0  0  0  0
    8.4375   -0.1250    0.0000 C   0  0  0  0  0  0  0  0  0  0  0  0
    8.4000   -3.9250    0.0000 C   0  0  0  0  0  0  0  0  0  0  0  0
    9.5000   -0.7875    0.0000 N   0  0  0  0  0  0  0  0  0  0  0  0
    9.4625   -2.0375    0.0000 C   0  0  0  0  0  0  0  0  0  0  0  0
    6.2375   -3.9375    0.0000 C   0  0  0  0  0  0  0  0  0  0  0  0
    5.1500   -0.8250    0.0000 O   0  0  0  0  0  0  0  0  0  0  0  0
    4.0750   -2.7000    0.0000 C   0  0  0  0  0  0  0  0  0  0  0  0
    7.3375   -0.7250    0.0000 O   0  0  0  0  0  0  0  0  0  0  0  0
    7.3125   -4.5500    0.0000 C   0  0  0  0  0  0  0  0  0  0  0  0
    8.4625    1.1250    0.0000 C   0  0  0  0  0  0  0  0  0  0  0  0
   12.2375    2.0625    0.0000 C   0  0  0  0  0  0  0  0  0  0  0  0
   14.8875    6.0292    0.0000 C   0  0  0  0  0  0  0  0  0  0  0  0
   11.6875    6.7125    0.0000 Cl  0  0  0  0  0  0  0  0  0  0  0  0
   14.8625    4.7625    0.0000 C   0  0  0  0  0  0  0  0  0  0  0  0
   16.0000    6.6375    0.0000 Cl  0  0  0  0  0  0  0  0  0  0  0  0
    9.4875   -4.5500    0.0000 O   0  0  0  0  0  0  0  0  0  0  0  0
    4.0750   -3.9500    0.0000 C   0  0  0  0  0  0  0  0  0  0  0  0
    2.9875   -2.0750    0.0000 C   0  0  0  0  0  0  0  0  0  0  0  0
    2.9875   -4.5750    0.0000 C   0  0  0  0  0  0  0  0  0  0  0  0
    1.9125   -2.7000    0.0000 C   0  0  0  0  0  0  0  0  0  0  0  0
    1.9125   -3.9500    0.0000 C   0  0  0  0  0  0  0  0  0  0  0  0
  2  1  1  0  0  0  0
  3  1  2  0  0  0  0
  4  2  1  0  0  0  0
  5  1  1  0  0  0  0
  6  3  1  0  0  0  0
  7  5  1  0  0  0  0
  8 12  1  0  0  0  0
  9 18  1  0  0  0  0
 10  8  1  0  0  0  0
 11  4  1  0  0  0  0
 12  9  2  0  0  0  0
 13  5  2  0  0  0  0
 14  7  2  0  0  0  0
 15 24  1  0  0  0  0
 16  9  1  0  0  0  0
 17 15  1  0  0  0  0
 18 17  1  0  0  0  0
 19 23  1  0  0  0  0
 20 10  2  0  0  0  0
 21 10  1  0  0  0  0
 22 15  2  0  0  0  0
 23 16  2  0  0  0  0
 24 11  1  0  0  0  0
 25  2  1  0  0  0  0
 26 28  2  0  0  0  0
 27  7  1  0  0  0  0
 28 13  1  0  0  0  0
 29 26  1  0  0  0  0
 30 16  1  0  0  0  0
 31 21  1  0  0  0  0
 32 21  2  0  0  0  0
 33 31  2  0  0  0  0
 34 32  1  0  0  0  0
 35 34  2  0  0  0  0
  4  6  2  0  0  0  0
 26 14  1  0  0  0  0
 19  8  2  0  0  0  0
 33 35  1  0  0  0  0
M  END
> <#>
1380

> <PLATE>
LAT018

> <ROW>
D

> <COL>
4

> <COORD>
D04

> <LATID>
LAT018D04

> <Supplier>
Chembridge

> <Suplier_CAT#>
7640626

> <Name>
Novel

> <Concentration_(mM)>
2.5

> <IC50_(µM)>
inactive

> <Yeast_Active?>
-

> <Pubchem_CID>
2195621

$$$$
