
  -ISIS-  08130814242D

 27 30  0  0  0  0  0  0  0  0999 V2000
    5.4292    3.7208    0.0000 C   0  0  0  0  0  0  0  0  0  0  0  0
    6.1792    2.4208    0.0000 N   0  0  0  0  0  0  0  0  0  0  0  0
    6.1792    3.7208    0.0000 C   0  0  0  0  0  0  0  0  0  0  0  0
    5.4292    2.4208    0.0000 C   0  0  0  0  0  0  0  0  0  0  0  0
    5.0542    3.0708    0.0000 C   0  0  0  0  0  0  0  0  0  0  0  0
    5.0542    4.3542    0.0000 C   0  0  0  0  0  0  0  0  0  0  0  0
    6.5542    3.0708    0.0000 C   0  0  0  0  0  0  0  0  0  0  0  0
    4.3042    4.3542    0.0000 N   0  0  0  0  0  0  0  0  0  0  0  0
    5.0542    1.7708    0.0000 C   0  0  0  0  0  0  0  0  0  0  0  0
    6.5542    4.3542    0.0000 C   0  0  0  0  0  0  0  0  0  0  0  0
    4.3042    1.7708    0.0000 N   0  0  0  0  0  0  0  0  0  0  0  0
    2.8042    5.6542    0.0000 N   0  0  0  0  0  0  0  0  0  0  0  0
    5.4292    5.0125    0.0000 O   0  0  0  0  0  0  0  0  0  0  0  0
    7.3042    3.0708    0.0000 C   0  0  0  0  0  0  0  0  0  0  0  0
    3.9292    5.0125    0.0000 C   0  0  0  0  0  0  0  0  0  0  0  0
    3.1792    5.0125    0.0000 C   0  0  0  0  0  0  0  0  0  0  0  0
    7.3042    4.3542    0.0000 C   0  0  0  0  0  0  0  0  0  0  0  0
    7.6792    3.7208    0.0000 C   0  0  0  0  0  0  0  0  0  0  0  0
    3.9292    1.1208    0.0000 C   0  0  0  0  0  0  0  0  0  0  0  0
    2.0542    5.6542    0.0000 C   0  0  0  0  0  0  0  0  0  0  0  0
    5.4292    1.1208    0.0000 C   0  0  0  0  0  0  0  0  0  0  0  0
    7.6792    5.0125    0.0000 C   0  0  0  0  0  0  0  0  0  0  0  0
    2.8042    4.3542    0.0000 C   0  0  0  0  0  0  0  0  0  0  0  0
    1.6792    5.0125    0.0000 C   0  0  0  0  0  0  0  0  0  0  0  0
    4.3042    0.4708    0.0000 C   0  0  0  0  0  0  0  0  0  0  0  0
    5.0542    0.4708    0.0000 C   0  0  0  0  0  0  0  0  0  0  0  0
    2.0542    4.3542    0.0000 C   0  0  0  0  0  0  0  0  0  0  0  0
  2  4  1  0  0  0  0
  3  1  2  0  0  0  0
  4  5  2  0  0  0  0
  5  1  1  0  0  0  0
  6  1  1  0  0  0  0
  7  3  1  0  0  0  0
  8  6  1  0  0  0  0
  9  4  1  0  0  0  0
 10  3  1  0  0  0  0
 11  9  1  0  0  0  0
 12 16  2  0  0  0  0
 13  6  2  0  0  0  0
 14  7  1  0  0  0  0
 15  8  1  0  0  0  0
 16 15  1  0  0  0  0
 17 10  2  0  0  0  0
 18 17  1  0  0  0  0
 19 11  2  0  0  0  0
 20 12  1  0  0  0  0
 21  9  2  0  0  0  0
 22 17  1  0  0  0  0
 23 16  1  0  0  0  0
 24 27  1  0  0  0  0
 25 26  2  0  0  0  0
 26 21  1  0  0  0  0
 27 23  2  0  0  0  0
  7  2  2  0  0  0  0
 14 18  2  0  0  0  0
 19 25  1  0  0  0  0
 24 20  2  0  0  0  0
M  END
> <#>
1542

> <PLATE>
LAT020

> <ROW>
F

> <COL>
4

> <COORD>
F04

> <LATID>
LAT020F04

> <Supplier>
Chembridge

> <Suplier_CAT#>
7924209

> <Name>
Novel

> <Concentration_(mM)>
2.5

> <IC50_(µM)>
37

> <Yeast_Active?>
-

> <Pubchem_CID>
1261918

$$$$
