
  -ISIS-  08130814242D

 28 30  0  0  0  0  0  0  0  0999 V2000
    2.5042    0.8500    0.0000 C   0  0  0  0  0  0  0  0  0  0  0  0
   -2.3500   -1.0375    0.0000 N   0  0  0  0  0  0  0  0  0  0  0  0
   -1.5458    0.3708    0.0000 C   0  0  0  0  0  0  0  0  0  0  0  0
   -1.5458   -0.5667    0.0000 C   0  0  0  0  0  0  0  0  0  0  0  0
    1.7000    0.3958    0.0000 C   0  0  0  0  0  0  0  0  0  0  0  0
   -3.1625    0.3708    0.0000 C   0  0  0  0  0  0  0  0  0  0  0  0
   -3.1625   -0.5667    0.0000 C   0  0  0  0  0  0  0  0  0  0  0  0
   -2.3500    0.8458    0.0000 C   0  0  0  0  0  0  0  0  0  0  0  0
    0.0792    0.3833    0.0000 N   0  0  0  0  0  0  0  0  0  0  0  0
    3.3167    0.3708    0.0000 C   0  0  0  0  0  0  0  0  0  0  0  0
    2.5042    1.8000    0.0000 C   0  0  0  0  0  0  0  0  0  0  0  0
    0.8792    0.8500    0.0000 N   0  0  0  0  0  0  0  0  0  0  0  0
   -0.7333    0.8458    0.0000 C   0  0  0  0  0  0  0  0  0  0  0  0
   -3.9708    0.8458    0.0000 C   0  0  0  0  0  0  0  0  0  0  0  0
    1.7000   -0.5375    0.0000 O   0  0  0  0  0  0  0  0  0  0  0  0
   -3.9708   -1.0375    0.0000 C   0  0  0  0  0  0  0  0  0  0  0  0
    4.1500    0.8500    0.0000 C   0  0  0  0  0  0  0  0  0  0  0  0
   -0.7333   -1.0375    0.0000 Cl  0  0  0  0  0  0  0  0  0  0  0  0
    3.3292    2.2708    0.0000 C   0  0  0  0  0  0  0  0  0  0  0  0
   -4.7833    0.3708    0.0000 C   0  0  0  0  0  0  0  0  0  0  0  0
    4.1500    1.7958    0.0000 C   0  0  0  0  0  0  0  0  0  0  0  0
   -4.7833   -0.5667    0.0000 C   0  0  0  0  0  0  0  0  0  0  0  0
    3.3042   -0.5542    0.0000 O   0  0  0  0  0  0  0  0  0  0  0  0
    3.3292    3.2083    0.0000 Br  0  0  0  0  0  0  0  0  0  0  0  0
   -5.5958    0.8458    0.0000 O   0  0  0  0  0  0  0  0  0  0  0  0
   -5.5958    1.7708    0.0000 C   0  0  0  0  0  0  0  0  0  0  0  0
   -4.8000    2.2333    0.0000 C   0  0  0  0  0  0  0  0  0  0  0  0
   -4.8000    3.1708    0.0000 C   0  0  0  0  0  0  0  0  0  0  0  0
  2  4  2  0  0  0  0
  3 13  1  0  0  0  0
  4  3  1  0  0  0  0
  5  1  1  0  0  0  0
  6  8  1  0  0  0  0
  7  6  2  0  0  0  0
  8  3  2  0  0  0  0
  9 12  1  0  0  0  0
 10  1  2  0  0  0  0
 11  1  1  0  0  0  0
 12  5  1  0  0  0  0
 13  9  2  0  0  0  0
 14  6  1  0  0  0  0
 15  5  2  0  0  0  0
 16  7  1  0  0  0  0
 17 10  1  0  0  0  0
 18  4  1  0  0  0  0
 19 11  2  0  0  0  0
 20 14  2  0  0  0  0
 21 19  1  0  0  0  0
 22 20  1  0  0  0  0
 23 10  1  0  0  0  0
 24 19  1  0  0  0  0
 25 20  1  0  0  0  0
 26 25  1  0  0  0  0
 27 26  1  0  0  0  0
 28 27  1  0  0  0  0
 17 21  2  0  0  0  0
  7  2  1  0  0  0  0
 22 16  2  0  0  0  0
M  END
> <#>
1669

> <PLATE>
LAT021

> <ROW>
E

> <COL>
10

> <COORD>
E10

> <LATID>
LAT021E10

> <Supplier>
Chembridge

> <Suplier_CAT#>
5535426

> <Name>
Novel

> <Concentration_(mM)>
2.5

> <IC50_(µM)>
inactive

> <Yeast_Active?>
-

> <Pubchem_CID>
2248178

$$$$
