
  -ISIS-  08130814242D

 15 15  0  0  0  0  0  0  0  0999 V2000
    5.4292   -4.2292    0.0000 C   0  0  0  0  0  0  0  0  0  0  0  0
    4.6042   -2.8125    0.0000 C   0  0  0  0  0  0  0  0  0  0  0  0
    5.8417   -3.5167    0.0000 C   0  0  0  0  0  0  0  0  0  0  0  0
    5.4292   -2.8042    0.0000 C   0  0  0  0  0  0  0  0  0  0  0  0
    4.6042   -4.2292    0.0000 C   0  0  0  0  0  0  0  0  0  0  0  0
    4.2000   -3.5250    0.0000 C   0  0  0  0  0  0  0  0  0  0  0  0
    7.9000   -4.2292    0.0000 C   0  0  0  0  0  0  0  0  0  0  0  0
    6.6667   -3.5167    0.0000 O   0  0  0  0  0  0  0  0  0  0  0  0
    8.3042   -3.5167    0.0000 O   0  0  0  0  0  0  0  0  0  0  0  0
    7.0792   -4.2292    0.0000 C   0  0  0  0  0  0  0  0  0  0  0  0
    5.8417   -2.0917    0.0000 Cl  0  0  0  0  0  0  0  0  0  0  0  0
    3.3750   -3.5250    0.0000 Cl  0  0  0  0  0  0  0  0  0  0  0  0
    4.2000   -4.9417    0.0000 Cl  0  0  0  0  0  0  0  0  0  0  0  0
    8.3125   -4.9417    0.0000 O   0  0  0  0  0  0  0  0  0  0  0  0
    7.9000   -5.6542    0.0000 C   0  0  0  0  0  0  0  0  0  0  0  0
  2  6  2  0  0  0  0
  3  1  1  0  0  0  0
  4  3  2  0  0  0  0
  5  1  2  0  0  0  0
  6  5  1  0  0  0  0
  7 10  1  0  0  0  0
  8  3  1  0  0  0  0
  9  7  2  0  0  0  0
 10  8  1  0  0  0  0
 11  4  1  0  0  0  0
 12  6  1  0  0  0  0
 13  5  1  0  0  0  0
 14  7  1  0  0  0  0
 15 14  1  0  0  0  0
  4  2  1  0  0  0  0
M  END
> <#>
188

> <PLATE>
LAT003

> <ROW>
D

> <COL>
5

> <COORD>
D05

> <LATID>
LAT003D05

> <Supplier>
Microsource

> <Suplier_CAT#>
00330046

> <Name>
2,4,5-Trichlorophenoxyacetic Acid, Methyl Ester

> <Concentration_(mM)>
2.5

> <IC50_(µM)>
0.27

> <Yeast_Active?>
-

> <Pubchem_CID>
1482

> <Description>
Herbicide

> <Comment>
Auxin agonist

$$$$
