
  -ISIS-  08130814242D

 32 35  0  0  0  0  0  0  0  0999 V2000
   -4.0000   -1.1292    0.0000 N   0  0  3  0  0  0  0  0  0  0  0  0
   -6.0542    0.3708    0.0000 C   0  0  0  0  0  0  0  0  0  0  0  0
   -5.2708    2.7083    0.0000 N   0  0  0  0  0  0  0  0  0  0  0  0
   -1.9833    0.3000    0.0000 C   0  0  0  0  0  0  0  0  0  0  0  0
   -2.7708    2.7083    0.0000 N   0  0  0  0  0  0  0  0  0  0  0  0
    0.3667   -0.4042    0.0000 S   0  0  0  0  0  0  0  0  0  0  0  0
    6.4667    2.3958    0.0000 N   0  0  0  0  0  0  0  0  0  0  0  0
   -8.4542   -0.3000    0.0000 C   0  0  0  0  0  0  0  0  0  0  0  0
    4.6875    0.6500    0.0000 C   0  0  0  0  0  0  0  0  0  0  0  0
   -4.0000   -3.5875    0.0000 C   0  0  0  0  0  0  0  0  0  0  0  0
    8.8292    1.7833    0.0000 C   0  0  3  0  0  0  0  0  0  0  0  0
    5.3375   -1.7792    0.0000 O   0  0  0  0  0  0  0  0  0  0  0  0
    2.3292    1.3000    0.0000 C   0  0  0  0  0  0  0  0  0  0  0  0
   -9.0667   -2.7000    0.0000 C   0  0  0  0  0  0  0  0  0  0  0  0
  -10.2667    1.4708    0.0000 C   0  0  0  0  0  0  0  0  0  0  0  0
    9.3500   -0.6042    0.0000 C   0  0  0  0  0  0  0  0  0  0  0  0
  -13.2167   -1.6375    0.0000 C   0  0  0  0  0  0  0  0  0  0  0  0
  -11.5792   -3.3500    0.0000 C   0  0  0  0  0  0  0  0  0  0  0  0
  -12.6667    0.7833    0.0000 C   0  0  0  0  0  0  0  0  0  0  0  0
  -15.5500   -2.3875    0.0000 O   0  0  0  0  0  0  0  0  0  0  0  0
   -6.1292   -4.8875    0.0000 C   0  0  0  0  0  0  0  0  0  0  0  0
   -1.8833   -4.7875    0.0000 C   0  0  0  0  0  0  0  0  0  0  0  0
   10.6792    3.5208    0.0000 C   0  0  0  0  0  0  0  0  0  0  0  0
    7.5292   -2.3292    0.0000 C   0  0  0  0  0  0  0  0  0  0  0  0
   11.7042   -1.3667    0.0000 C   0  0  0  0  0  0  0  0  0  0  0  0
  -16.0000   -4.8292    0.0000 C   0  0  0  0  0  0  0  0  0  0  0  0
   12.2542   -3.8000    0.0000 C   0  0  0  0  0  0  0  0  0  0  0  0
   -1.8125   -7.2875    0.0000 C   0  0  0  0  0  0  0  0  0  0  0  0
    8.1167   -4.7875    0.0000 C   0  0  0  0  0  0  0  0  0  0  0  0
   -6.0542   -7.4000    0.0000 C   0  0  0  0  0  0  0  0  0  0  0  0
   -3.9000   -8.5542    0.0000 C   0  0  0  0  0  0  0  0  0  0  0  0
   10.4792   -5.5042    0.0000 C   0  0  0  0  0  0  0  0  0  0  0  0
  2  1  1  0  0  0  0
  3  2  2  0  0  0  0
  4  1  1  0  0  0  0
  5  4  2  0  0  0  0
  6  4  1  0  0  0  0
  7  9  1  0  0  0  0
  8  2  1  0  0  0  0
  9 13  1  0  0  0  0
 10  1  1  0  0  0  0
 11  7  1  0  0  0  0
 12  9  2  0  0  0  0
 13  6  1  0  0  0  0
 14  8  2  0  0  0  0
 15  8  1  0  0  0  0
 16 11  1  0  0  0  0
 17 19  1  0  0  0  0
 18 14  1  0  0  0  0
 19 15  2  0  0  0  0
 20 17  1  0  0  0  0
 21 10  1  0  0  0  0
 22 10  2  0  0  0  0
 23 11  1  0  0  0  0
 24 16  1  0  0  0  0
 25 16  2  0  0  0  0
 26 20  1  0  0  0  0
 27 25  1  0  0  0  0
 28 22  1  0  0  0  0
 29 24  2  0  0  0  0
 30 21  2  0  0  0  0
 31 28  2  0  0  0  0
 32 27  2  0  0  0  0
  3  5  1  0  0  0  0
 30 31  1  0  0  0  0
 17 18  2  0  0  0  0
 29 32  1  0  0  0  0
M  END
> <#>
1717

> <PLATE>
LAT022

> <ROW>
E

> <COL>
6

> <COORD>
E06

> <LATID>
LAT022E06

> <Supplier>
Chembridge

> <Suplier_CAT#>
6564218

> <Name>
Novel

> <Concentration_(mM)>
2.5

> <IC50_(µM)>
>100

> <Yeast_Active?>
-

> <Pubchem_CID>
1128065

$$$$
