
  -ISIS-  08130814242D

 24 26  0  0  0  0  0  0  0  0999 V2000
    1.7292   -2.6667    0.0000 C   0  0  0  0  0  0  0  0  0  0  0  0
    1.7292   -1.6292    0.0000 C   0  0  0  0  0  0  0  0  0  0  0  0
    0.8125   -3.2125    0.0000 C   0  0  0  0  0  0  0  0  0  0  0  0
    6.2667   -0.9500    0.0000 C   0  0  0  0  0  0  0  0  0  0  0  0
    2.6667   -3.1917    0.0000 C   0  0  0  0  0  0  0  0  0  0  0  0
    5.3667   -1.5125    0.0000 N   0  0  3  0  0  0  0  0  0  0  0  0
    7.1917   -1.4500    0.0000 C   0  0  0  0  0  0  0  0  0  0  0  0
    3.5667   -2.6292    0.0000 N   0  0  3  0  0  0  0  0  0  0  0  0
   -0.0875   -1.6292    0.0000 C   0  0  3  0  0  0  0  0  0  0  0  0
   -0.0875   -2.6917    0.0000 C   0  0  0  0  0  0  0  0  0  0  0  0
    0.8125   -1.1125    0.0000 C   0  0  0  0  0  0  0  0  0  0  0  0
    7.4292   -2.4667    0.0000 O   0  0  0  0  0  0  0  0  0  0  0  0
    6.2667    0.0875    0.0000 O   0  0  0  0  0  0  0  0  0  0  0  0
    0.8125   -4.2500    0.0000 O   0  0  0  0  0  0  0  0  0  0  0  0
    2.6667   -1.1292    0.0000 O   0  0  0  0  0  0  0  0  0  0  0  0
    8.0917   -0.9125    0.0000 C   0  0  0  0  0  0  0  0  0  0  0  0
    4.4500   -1.0292    0.0000 C   0  0  0  0  0  0  0  0  0  0  0  0
    5.3667   -2.5667    0.0000 C   0  0  0  0  0  0  0  0  0  0  0  0
    8.4667   -2.5500    0.0000 C   0  0  0  0  0  0  0  0  0  0  0  0
    8.8667   -1.5917    0.0000 C   0  0  0  0  0  0  0  0  0  0  0  0
    4.5125   -3.1292    0.0000 C   0  0  0  0  0  0  0  0  0  0  0  0
    3.5500   -1.5667    0.0000 C   0  0  0  0  0  0  0  0  0  0  0  0
   -1.0500   -2.0500    0.0000 C   0  0  0  0  0  0  0  0  0  0  0  0
   -0.5083   -0.6667    0.0000 C   0  0  0  0  0  0  0  0  0  0  0  0
  2  1  1  0  0  0  0
  3  1  1  0  0  0  0
  4  6  1  0  0  0  0
  5  1  2  0  0  0  0
  6 17  1  0  0  0  0
  7  4  1  0  0  0  0
  8  5  1  0  0  0  0
  9 10  1  0  0  0  0
 10  3  1  0  0  0  0
 11  2  1  0  0  0  0
 12  7  1  0  0  0  0
 13  4  2  0  0  0  0
 14  3  2  0  0  0  0
 15  2  2  0  0  0  0
 16  7  2  0  0  0  0
 17 22  1  0  0  0  0
 18 21  1  0  0  0  0
 19 12  1  0  0  0  0
 20 16  1  0  0  0  0
 21  8  1  0  0  0  0
 22  8  1  0  0  0  0
 23  9  1  0  0  0  0
 24  9  1  0  0  0  0
  9 11  1  0  0  0  0
  6 18  1  0  0  0  0
 19 20  2  0  0  0  0
M  END
> <#>
644

> <PLATE>
LAT009

> <ROW>
D

> <COL>
2

> <COORD>
D02

> <LATID>
LAT009D02

> <Supplier>
Chembridge

> <Suplier_CAT#>
5521390

> <Name>
Novel

> <Sec_Name>
146_F06

> <Concentration_(mM)>
2.5

> <IC50_(µM)>
100

> <Yeast_Active?>
-

> <Pubchem_CID>
870796

$$$$
