
  -ISIS-  08130814242D

 10 10  0  0  0  0  0  0  0  0999 V2000
   -3.5375    0.0700    0.0000 C   0  0  0  0  0  0  0  0  0  0  0  0
   -4.1625    1.1525    0.0000 C   0  0  2  0  0  0  0  0  0  0  0  0
   -3.5375    2.2350    0.0000 C   0  0  1  0  0  0  0  0  0  0  0  0
   -2.2875    2.2350    0.0000 C   0  0  2  0  0  0  0  0  0  0  0  0
   -1.6625    1.1525    0.0000 C   0  0  2  0  0  0  0  0  0  0  0  0
   -2.2875    0.0700    0.0000 O   0  0  0  0  0  0  0  0  0  0  0  0
   -0.4125    1.1525    0.0000 O   0  0  0  0  0  0  0  0  0  0  0  0
   -1.6625    3.3175    0.0000 O   0  0  0  0  0  0  0  0  0  0  0  0
   -4.1625    3.3175    0.0000 O   0  0  0  0  0  0  0  0  0  0  0  0
   -5.4125    1.1525    0.0000 O   0  0  0  0  0  0  0  0  0  0  0  0
  1  2  1  0  0  0  0
  2  3  1  0  0  0  0
  3  4  1  0  0  0  0
  4  5  1  0  0  0  0
  5  6  1  0  0  0  0
  1  6  1  0  0  0  0
  5  7  1  1  0  0  0
  4  8  1  1  0  0  0
  3  9  1  6  0  0  0
  2 10  1  1  0  0  0
M  END
> <#>
407

> <PLATE>
LAT006

> <ROW>
G

> <COL>
2

> <COORD>
G02

> <LATID>
LAT006G02

> <Supplier>
Sigma

> <Suplier_CAT#>
X-1500

> <Name>
D(+)-Xylose

> <Concentration_(mM)>
2.5

> <IC50_(µM)>
inactive

> <Yeast_Active?>
-

> <Pubchem_CID>
229

$$$$
