
  -ISIS-  08130814242D

 23 25  0  0  0  0  0  0  0  0999 V2000
    2.6042   -1.5042    0.0000 C   0  0  0  0  0  0  0  0  0  0  0  0
    2.0000   -1.0667    0.0000 C   0  0  0  0  0  0  0  0  0  0  0  0
    1.6250   -2.2167    0.0000 N   0  0  0  0  0  0  0  0  0  0  0  0
    2.3750   -2.2167    0.0000 N   0  0  0  0  0  0  0  0  0  0  0  0
    3.3167   -1.2750    0.0000 C   0  0  0  0  0  0  0  0  0  0  0  0
    1.3917   -1.5042    0.0000 C   0  0  0  0  0  0  0  0  0  0  0  0
    4.5917   -1.5417    0.0000 N   0  0  0  0  0  0  0  0  0  0  0  0
    5.8625   -1.8125    0.0000 C   0  0  0  0  0  0  0  0  0  0  0  0
    3.8792   -1.7750    0.0000 N   0  0  0  0  0  0  0  0  0  0  0  0
    3.4792   -0.5417    0.0000 O   0  0  0  0  0  0  0  0  0  0  0  0
    0.6792   -1.2750    0.0000 C   0  0  0  0  0  0  0  0  0  0  0  0
    6.4167   -2.3167    0.0000 C   0  0  0  0  0  0  0  0  0  0  0  0
    5.1500   -2.0417    0.0000 C   0  0  0  0  0  0  0  0  0  0  0  0
    6.2667   -3.0500    0.0000 F   0  0  0  0  0  0  0  0  0  0  0  0
    6.0167   -1.0792    0.0000 C   0  0  0  0  0  0  0  0  0  0  0  0
    7.1292   -2.0792    0.0000 C   0  0  0  0  0  0  0  0  0  0  0  0
    0.5250   -0.5417    0.0000 C   0  0  0  0  0  0  0  0  0  0  0  0
    0.1250   -1.7750    0.0000 C   0  0  0  0  0  0  0  0  0  0  0  0
    6.7292   -0.8500    0.0000 C   0  0  0  0  0  0  0  0  0  0  0  0
   -0.5875   -1.5417    0.0000 C   0  0  0  0  0  0  0  0  0  0  0  0
   -0.1875   -0.3042    0.0000 C   0  0  0  0  0  0  0  0  0  0  0  0
    7.2917   -1.3500    0.0000 C   0  0  0  0  0  0  0  0  0  0  0  0
   -0.7458   -0.8042    0.0000 C   0  0  0  0  0  0  0  0  0  0  0  0
  2  1  2  0  0  0  0
  3  4  1  0  0  0  0
  4  1  1  0  0  0  0
  5  1  1  0  0  0  0
  6  2  1  0  0  0  0
  7  9  1  0  0  0  0
  8 13  1  0  0  0  0
  9  5  1  0  0  0  0
 10  5  2  0  0  0  0
 11  6  1  0  0  0  0
 12  8  1  0  0  0  0
 13  7  2  0  0  0  0
 14 12  1  0  0  0  0
 15  8  2  0  0  0  0
 16 12  2  0  0  0  0
 17 11  1  0  0  0  0
 18 11  2  0  0  0  0
 19 15  1  0  0  0  0
 20 18  1  0  0  0  0
 21 17  2  0  0  0  0
 22 19  2  0  0  0  0
 23 20  2  0  0  0  0
  6  3  2  0  0  0  0
 21 23  1  0  0  0  0
 16 22  1  0  0  0  0
M  END
> <#>
1856

> <PLATE>
LAT024

> <ROW>
H

> <COL>
3

> <COORD>
H03

> <LATID>
LAT024H03

> <Supplier>
Chembridge

> <Suplier_CAT#>
5752246

> <Name>
Novel

> <Sec_Name>
239_C03

> <Concentration_(mM)>
2.5

> <IC50_(µM)>
34

> <Yeast_Active?>
-

> <Pubchem_CID>
NULL

$$$$
