
  -ISIS-  08130814242D

 22 25  0  0  0  0  0  0  0  0999 V2000
   -1.8458    0.2458    0.0000 C   0  0  3  0  0  0  0  0  0  0  0  0
   -1.0333   -1.1667    0.0000 C   0  0  3  0  0  0  0  0  0  0  0  0
   -1.0333   -0.2292    0.0000 C   0  0  3  0  0  0  0  0  0  0  0  0
   -2.6500   -1.1667    0.0000 N   0  0  3  0  0  0  0  0  0  0  0  0
   -2.2208   -1.9000    0.0000 N   0  0  3  0  0  0  0  0  0  0  0  0
    0.2542   -0.2167    0.0000 C   0  0  0  0  0  0  0  0  0  0  0  0
   -0.3625    0.1500    0.0000 N   0  0  0  0  0  0  0  0  0  0  0  0
   -2.6500   -0.2292    0.0000 C   0  0  0  0  0  0  0  0  0  0  0  0
   -1.1208   -2.2667    0.0000 C   0  0  0  0  0  0  0  0  0  0  0  0
   -1.8458   -1.6375    0.0000 C   0  0  0  0  0  0  0  0  0  0  0  0
   -2.3500   -0.4167    0.0000 C   0  0  0  0  0  0  0  0  0  0  0  0
   -2.8000   -2.1500    0.0000 C   0  0  0  0  0  0  0  0  0  0  0  0
    0.8500    0.3125    0.0000 N   0  0  0  0  0  0  0  0  0  0  0  0
    0.2875   -0.8667    0.0000 S   0  0  0  0  0  0  0  0  0  0  0  0
   -1.7333    1.2000    0.0000 C   0  0  0  0  0  0  0  0  0  0  0  0
   -0.3208   -1.3667    0.0000 C   0  0  0  0  0  0  0  0  0  0  0  0
    0.6667    1.1958    0.0000 C   0  0  0  0  0  0  0  0  0  0  0  0
   -0.2000    1.4833    0.0000 C   0  0  0  0  0  0  0  0  0  0  0  0
    1.3500    1.7958    0.0000 C   0  0  0  0  0  0  0  0  0  0  0  0
    1.1792    2.6958    0.0000 C   0  0  0  0  0  0  0  0  0  0  0  0
   -0.3958    2.3833    0.0000 C   0  0  0  0  0  0  0  0  0  0  0  0
    0.3042    2.9958    0.0000 C   0  0  0  0  0  0  0  0  0  0  0  0
  2  3  1  0  0  0  0
  3  1  1  0  0  0  0
  4  8  1  0  0  0  0
  5 11  1  0  0  0  0
  6  7  1  0  0  0  0
  7  3  1  0  0  0  0
  8  1  1  0  0  0  0
  9  5  1  0  0  0  0
 10  4  1  0  0  0  0
 11  1  1  0  0  0  0
 12  5  1  0  0  0  0
 13  6  1  0  0  0  0
 14  6  2  0  0  0  0
 15  1  1  0  0  0  0
 16  2  1  0  0  0  0
 17 13  1  0  0  0  0
 18 17  2  0  0  0  0
 19 17  1  0  0  0  0
 20 19  2  0  0  0  0
 21 18  1  0  0  0  0
 22 20  1  0  0  0  0
 12  4  1  0  0  0  0
  2  9  1  0  0  0  0
 10  2  1  0  0  0  0
 21 22  2  0  0  0  0
M  END
> <#>
2020

> <PLATE>
LAT026

> <ROW>
D

> <COL>
4

> <COORD>
D04

> <LATID>
LAT026D04

> <Supplier>
Chembridge

> <Suplier_CAT#>
5667630

> <Sec_Name>
210_E03

> <Concentration_(mM)>
2.5

> <IC50_(µM)>
inactive

> <Yeast_Active?>
-

> <Pubchem_CID>
917312

$$$$
