
  -ISIS-  08130814242D

 13 13  0  0  0  0  0  0  0  0999 V2000
   -3.1625    1.7000    0.0000 C   0  0  0  0  0  0  0  0  0  0  0  0
   -3.1458    0.9208    0.0000 C   0  0  0  0  0  0  0  0  0  0  0  0
   -3.8000    0.5208    0.0000 C   0  0  0  0  0  0  0  0  0  0  0  0
   -4.4708    0.9000    0.0000 C   0  0  0  0  0  0  0  0  0  0  0  0
   -3.8000    2.0625    0.0000 C   0  0  0  0  0  0  0  0  0  0  0  0
   -4.4708    1.6833    0.0000 C   0  0  0  0  0  0  0  0  0  0  0  0
   -2.5000    2.1208    0.0000 C   0  0  0  0  0  0  0  0  0  0  0  0
   -2.5458    2.9000    0.0000 O   0  0  0  0  0  0  0  0  0  0  0  0
   -3.8000   -0.2542    0.0000 Br  0  0  0  0  0  0  0  0  0  0  0  0
   -2.4625    0.5458    0.0000 O   0  0  0  0  0  0  0  0  0  0  0  0
   -5.1208    2.0833    0.0000 Br  0  0  0  0  0  0  0  0  0  0  0  0
   -5.1458    0.5208    0.0000 C   0  0  0  0  0  0  0  0  0  0  0  0
   -1.8208    1.7833    0.0000 C   0  0  0  0  0  0  0  0  0  0  0  0
  2  1  2  0  0  0  0
  3  2  1  0  0  0  0
  4  6  1  0  0  0  0
  5  1  1  0  0  0  0
  6  5  2  0  0  0  0
  7  1  1  0  0  0  0
  8  7  2  0  0  0  0
  9  3  1  0  0  0  0
 10  2  1  0  0  0  0
 11  6  1  0  0  0  0
 12  4  1  0  0  0  0
 13  7  1  0  0  0  0
  4  3  2  0  0  0  0
M  END
> <#>
1152

> <PLATE>
LAT015

> <ROW>
H

> <COL>
5

> <COORD>
H05

> <LATID>
LAT015H05

> <Supplier>
Chembridge

> <Suplier_CAT#>
5556861

> <Name>
Novel

> <Sec_Name>
166_A08

> <Concentration_(mM)>
2.5

> <IC50_(µM)>
31

> <Yeast_Active?>
-

> <Pubchem_CID>
871890

$$$$
