
  -ISIS-  08130814242D

 30 32  0  0  0  0  0  0  0  0999 V2000
    2.4042    1.8958    0.0000 S   0  0  3  0  0  0  0  0  0  0  0  0
    3.1542    1.8958    0.0000 C   0  0  0  0  0  0  0  0  0  0  0  0
    2.2125    2.6208    0.0000 N   0  0  0  0  0  0  0  0  0  0  0  0
    3.5292    1.2458    0.0000 C   0  0  0  0  0  0  0  0  0  0  0  0
    1.6667    1.7708    0.0000 O   0  0  0  0  0  0  0  0  0  0  0  0
    2.4750    1.1500    0.0000 O   0  0  0  0  0  0  0  0  0  0  0  0
    4.2792    1.2458    0.0000 C   0  0  0  0  0  0  0  0  0  0  0  0
    6.5292    2.5458    0.0000 C   0  0  0  0  0  0  0  0  0  0  0  0
    4.6542    1.8958    0.0000 C   0  0  0  0  0  0  0  0  0  0  0  0
    6.9042    3.1958    0.0000 N   0  0  0  0  0  0  0  0  0  0  0  0
    5.4042    1.8958    0.0000 O   0  0  0  0  0  0  0  0  0  0  0  0
    8.7792    3.8458    0.0000 N   0  0  0  0  0  0  0  0  0  0  0  0
    3.5292    2.5458    0.0000 C   0  0  0  0  0  0  0  0  0  0  0  0
    6.9042    1.8958    0.0000 O   0  0  0  0  0  0  0  0  0  0  0  0
    4.2792    2.5458    0.0000 C   0  0  0  0  0  0  0  0  0  0  0  0
    5.7792    2.5458    0.0000 C   0  0  0  0  0  0  0  0  0  0  0  0
    1.4917    2.8125    0.0000 C   0  0  0  0  0  0  0  0  0  0  0  0
    8.0292    3.8458    0.0000 C   0  0  0  0  0  0  0  0  0  0  0  0
    7.6542    3.1958    0.0000 C   0  0  0  0  0  0  0  0  0  0  0  0
    1.2917    3.5458    0.0000 C   0  0  0  0  0  0  0  0  0  0  0  0
    4.6542    0.5958    0.0000 C   0  0  0  0  0  0  0  0  0  0  0  0
    9.1542    4.4917    0.0000 C   0  0  0  0  0  0  0  0  0  0  0  0
    7.6542    4.4917    0.0000 C   0  0  0  0  0  0  0  0  0  0  0  0
    1.8250    4.0667    0.0000 C   0  0  0  0  0  0  0  0  0  0  0  0
    0.5667    3.7333    0.0000 C   0  0  0  0  0  0  0  0  0  0  0  0
    8.7792    5.1375    0.0000 C   0  0  0  0  0  0  0  0  0  0  0  0
    1.6292    4.7792    0.0000 C   0  0  0  0  0  0  0  0  0  0  0  0
    0.3792    4.4542    0.0000 C   0  0  0  0  0  0  0  0  0  0  0  0
    8.0292    5.1375    0.0000 C   0  0  0  0  0  0  0  0  0  0  0  0
    0.9042    4.9792    0.0000 C   0  0  0  0  0  0  0  0  0  0  0  0
  2  1  1  0  0  0  0
  3  1  1  0  0  0  0
  4  2  2  0  0  0  0
  5  1  2  0  0  0  0
  6  1  2  0  0  0  0
  7  4  1  0  0  0  0
  8 16  1  0  0  0  0
  9 15  1  0  0  0  0
 10  8  1  0  0  0  0
 11  9  1  0  0  0  0
 12 18  2  0  0  0  0
 13  2  1  0  0  0  0
 14  8  2  0  0  0  0
 15 13  2  0  0  0  0
 16 11  1  0  0  0  0
 17  3  1  0  0  0  0
 18 19  1  0  0  0  0
 19 10  1  0  0  0  0
 20 17  1  0  0  0  0
 21  7  1  0  0  0  0
 22 12  1  0  0  0  0
 23 18  1  0  0  0  0
 24 20  2  0  0  0  0
 25 20  1  0  0  0  0
 26 29  1  0  0  0  0
 27 24  1  0  0  0  0
 28 25  2  0  0  0  0
 29 23  2  0  0  0  0
 30 28  1  0  0  0  0
  9  7  2  0  0  0  0
 27 30  2  0  0  0  0
 26 22  2  0  0  0  0
M  END
> <#>
1435

> <PLATE>
LAT018

> <ROW>
C

> <COL>
11

> <COORD>
C11

> <LATID>
LAT018C11

> <Supplier>
Chembridge

> <Suplier_CAT#>
9020477

> <Name>
Novel

> <Concentration_(mM)>
2.5

> <IC50_(µM)>
>100

> <Yeast_Active?>
-

> <Pubchem_CID>
6458834

$$$$
