
  -ISIS-  08130814242D

 21 23  0  0  0  0  0  0  0  0999 V2000
   -1.4958    0.1708    0.0000 N   0  0  3  0  0  0  0  0  0  0  0  0
   -0.5000    0.9333    0.0000 C   0  0  0  0  0  0  0  0  0  0  0  0
   -1.4958   -1.0667    0.0000 C   0  0  0  0  0  0  0  0  0  0  0  0
   -2.5000    0.8500    0.0000 N   0  0  0  0  0  0  0  0  0  0  0  0
   -0.9208    2.0625    0.0000 C   0  0  0  0  0  0  0  0  0  0  0  0
   -0.4000   -1.6875    0.0000 N   0  0  0  0  0  0  0  0  0  0  0  0
   -2.5708   -1.7000    0.0000 N   0  0  0  0  0  0  0  0  0  0  0  0
   -2.1458    2.0625    0.0000 C   0  0  0  0  0  0  0  0  0  0  0  0
    0.6792    0.6125    0.0000 N   0  0  0  0  0  0  0  0  0  0  0  0
   -2.5500   -2.9500    0.0000 C   0  0  0  0  0  0  0  0  0  0  0  0
   -0.4000   -2.9500    0.0000 C   0  0  0  0  0  0  0  0  0  0  0  0
   -1.4625   -3.5667    0.0000 C   0  0  0  0  0  0  0  0  0  0  0  0
    1.5375    1.4958    0.0000 C   0  0  0  0  0  0  0  0  0  0  0  0
   -2.8500    3.0625    0.0000 C   0  0  0  0  0  0  0  0  0  0  0  0
   -3.6208   -3.5667    0.0000 C   0  0  0  0  0  0  0  0  0  0  0  0
    0.6667   -3.5667    0.0000 C   0  0  0  0  0  0  0  0  0  0  0  0
    2.7375    1.1708    0.0000 C   0  0  0  0  0  0  0  0  0  0  0  0
    1.2042    2.6833    0.0000 C   0  0  0  0  0  0  0  0  0  0  0  0
    2.0792    3.5708    0.0000 C   0  0  0  0  0  0  0  0  0  0  0  0
    3.6000    2.0708    0.0000 C   0  0  0  0  0  0  0  0  0  0  0  0
    3.2667    3.2708    0.0000 C   0  0  0  0  0  0  0  0  0  0  0  0
  2  1  1  0  0  0  0
  3  1  1  0  0  0  0
  4  1  1  0  0  0  0
  5  2  2  0  0  0  0
  6  3  2  0  0  0  0
  7  3  1  0  0  0  0
  8  4  2  0  0  0  0
  9  2  1  0  0  0  0
 10  7  2  0  0  0  0
 11  6  1  0  0  0  0
 12 10  1  0  0  0  0
 13  9  1  0  0  0  0
 14  8  1  0  0  0  0
 15 10  1  0  0  0  0
 16 11  1  0  0  0  0
 17 13  1  0  0  0  0
 18 13  2  0  0  0  0
 19 18  1  0  0  0  0
 20 17  2  0  0  0  0
 21 19  2  0  0  0  0
  5  8  1  0  0  0  0
 11 12  2  0  0  0  0
 21 20  1  0  0  0  0
M  END
> <#>
1833

> <PLATE>
LAT023

> <ROW>
A

> <COL>
11

> <COORD>
A11

> <LATID>
LAT023A11

> <Supplier>
Chembridge

> <Suplier_CAT#>
5680134

> <Name>
Pypazomine

> <Sec_Name>
216_F08

> <Concentration_(mM)>
2.5

> <IC50_(µM)>
4

> <Yeast_Active?>
-

> <Pubchem_CID>
867936

$$$$
