
  -ISIS-  08130814242D

 28 29  0  0  0  0  0  0  0  0999 V2000
   -5.5333    3.7708    0.0000 C   0  0  0  0  0  0  0  0  0  0  0  0
   13.5542    4.5292    0.0000 C   0  0  0  0  0  0  0  0  0  0  0  0
   13.8667    2.0333    0.0000 N   0  0  0  0  0  0  0  0  0  0  0  0
   -7.5333    2.3708    0.0000 N   0  0  0  0  0  0  0  0  0  0  0  0
   14.2875   -2.9167    0.0000 N   0  0  0  0  0  0  0  0  0  0  0  0
  -11.4875   -0.5375    0.0000 N   0  0  0  0  0  0  0  0  0  0  0  0
   15.5667    5.9292    0.0000 O   0  0  0  0  0  0  0  0  0  0  0  0
   -5.8458    6.2292    0.0000 O   0  0  0  0  0  0  0  0  0  0  0  0
   11.3375    5.5000    0.0000 N   0  0  0  0  0  0  0  0  0  0  0  0
   -3.3125    2.7958    0.0000 N   0  0  0  0  0  0  0  0  0  0  0  0
   12.0667   -1.8167    0.0000 C   0  0  0  0  0  0  0  0  0  0  0  0
  -11.7667    1.9458    0.0000 C   0  0  0  0  0  0  0  0  0  0  0  0
   -9.7542    3.3458    0.0000 C   0  0  0  0  0  0  0  0  0  0  0  0
   11.8542    0.6333    0.0000 C   0  0  0  0  0  0  0  0  0  0  0  0
  -13.5000   -1.9375    0.0000 C   0  0  0  0  0  0  0  0  0  0  0  0
   14.5000   -5.2542    0.0000 C   0  0  0  0  0  0  0  0  0  0  0  0
   -1.3958    4.1875    0.0000 C   0  0  0  0  0  0  0  0  0  0  0  0
    9.3292    4.0917    0.0000 C   0  0  0  0  0  0  0  0  0  0  0  0
  -13.9875    2.9208    0.0000 C   0  0  0  0  0  0  0  0  0  0  0  0
   10.0542   -3.2167    0.0000 C   0  0  0  0  0  0  0  0  0  0  0  0
    7.1042    5.0333    0.0000 C   0  0  0  0  0  0  0  0  0  0  0  0
    0.9042    3.2208    0.0000 C   0  0  0  0  0  0  0  0  0  0  0  0
    2.9167    4.6167    0.0000 C   0  0  0  0  0  0  0  0  0  0  0  0
    5.1375    3.6500    0.0000 C   0  0  0  0  0  0  0  0  0  0  0  0
  -15.7167   -0.9667    0.0000 C   0  0  0  0  0  0  0  0  0  0  0  0
   12.5000   -6.7792    0.0000 C   0  0  0  0  0  0  0  0  0  0  0  0
  -16.0000    1.5208    0.0000 C   0  0  0  0  0  0  0  0  0  0  0  0
   10.2792   -5.7042    0.0000 C   0  0  0  0  0  0  0  0  0  0  0  0
  2  9  1  0  0  0  0
  3  2  1  0  0  0  0
  4  1  1  0  0  0  0
  5 11  1  0  0  0  0
  6 12  1  0  0  0  0
  7  2  2  0  0  0  0
  8  1  2  0  0  0  0
  9 18  1  0  0  0  0
 10  1  1  0  0  0  0
 11 14  1  0  0  0  0
 12 13  1  0  0  0  0
 13  4  1  0  0  0  0
 14  3  1  0  0  0  0
 15  6  2  0  0  0  0
 16  5  2  0  0  0  0
 17 10  1  0  0  0  0
 18 21  1  0  0  0  0
 19 12  2  0  0  0  0
 20 11  2  0  0  0  0
 21 24  1  0  0  0  0
 22 17  1  0  0  0  0
 23 22  1  0  0  0  0
 24 23  1  0  0  0  0
 25 27  2  0  0  0  0
 26 28  2  0  0  0  0
 27 19  1  0  0  0  0
 28 20  1  0  0  0  0
 25 15  1  0  0  0  0
 26 16  1  0  0  0  0
M  END
> <#>
1399

> <PLATE>
LAT018

> <ROW>
G

> <COL>
6

> <COORD>
G06

> <LATID>
LAT018G06

> <Supplier>
Chembridge

> <Suplier_CAT#>
5245512

> <Name>
Novel

> <Concentration_(mM)>
2.5

> <IC50_(µM)>
inactive

> <Yeast_Active?>
-

> <Pubchem_CID>
2837005

$$$$
