
  -ISIS-  08130814242D

 21 23  0  0  0  0  0  0  0  0999 V2000
   -1.9708    1.3958    0.0000 C   0  0  0  0  0  0  0  0  0  0  0  0
   -1.2833    1.7958    0.0000 N   0  0  0  0  0  0  0  0  0  0  0  0
   -1.9708    0.6000    0.0000 C   0  0  0  0  0  0  0  0  0  0  0  0
   -0.6000    1.3958    0.0000 C   0  0  0  0  0  0  0  0  0  0  0  0
   -1.2833    0.2125    0.0000 C   0  0  0  0  0  0  0  0  0  0  0  0
   -2.6500    1.7708    0.0000 C   0  0  0  0  0  0  0  0  0  0  0  0
    2.1167    1.3958    0.0000 N   0  0  3  0  0  0  0  0  0  0  0  0
   -0.6000    0.6000    0.0000 C   0  0  0  0  0  0  0  0  0  0  0  0
   -2.6500    0.2000    0.0000 C   0  0  0  0  0  0  0  0  0  0  0  0
    0.0792    1.7833    0.0000 N   0  0  0  0  0  0  0  0  0  0  0  0
    3.4792    0.6000    0.0000 O   0  0  0  0  0  0  0  0  0  0  0  0
   -3.3458    1.3958    0.0000 C   0  0  0  0  0  0  0  0  0  0  0  0
   -3.3458    0.6000    0.0000 C   0  0  0  0  0  0  0  0  0  0  0  0
   -4.0208    1.7833    0.0000 Cl  0  0  0  0  0  0  0  0  0  0  0  0
    0.7542    1.3958    0.0000 C   0  0  0  0  0  0  0  0  0  0  0  0
    1.4375    1.7833    0.0000 C   0  0  0  0  0  0  0  0  0  0  0  0
    2.1167    0.6000    0.0000 C   0  0  0  0  0  0  0  0  0  0  0  0
    2.8000    1.7833    0.0000 C   0  0  0  0  0  0  0  0  0  0  0  0
   -1.2833   -0.5667    0.0000 C   0  0  0  0  0  0  0  0  0  0  0  0
    3.4792    1.3958    0.0000 C   0  0  0  0  0  0  0  0  0  0  0  0
    2.8000    0.2000    0.0000 C   0  0  0  0  0  0  0  0  0  0  0  0
  2  1  1  0  0  0  0
  3  1  2  0  0  0  0
  4  2  2  0  0  0  0
  5  3  1  0  0  0  0
  6  1  1  0  0  0  0
  7 16  1  0  0  0  0
  8  5  2  0  0  0  0
  9  3  1  0  0  0  0
 10  4  1  0  0  0  0
 11 20  1  0  0  0  0
 12  6  2  0  0  0  0
 13 12  1  0  0  0  0
 14 12  1  0  0  0  0
 15 10  1  0  0  0  0
 16 15  1  0  0  0  0
 17  7  1  0  0  0  0
 18  7  1  0  0  0  0
 19  5  1  0  0  0  0
 20 18  1  0  0  0  0
 21 17  1  0  0  0  0
  9 13  2  0  0  0  0
  8  4  1  0  0  0  0
 21 11  1  0  0  0  0
M  END
> <#>
2052

> <PLATE>
LAT026

> <ROW>
D

> <COL>
8

> <COORD>
D08

> <LATID>
LAT026D08

> <Supplier>
Chembridge

> <Suplier_CAT#>
5566422

> <Sec_Name>
173_E09

> <Concentration_(mM)>
2.5

> <IC50_(µM)>
>100

> <Yeast_Active?>
-

> <Pubchem_CID>
NULL

$$$$
