
  -ISIS-  08130814242D

 32 35  0  0  0  0  0  0  0  0999 V2000
    4.0875   -2.9417    0.0000 N   0  0  3  0  0  0  0  0  0  0  0  0
    3.4167   -2.4625    0.0000 C   0  0  0  0  0  0  0  0  0  0  0  0
    3.6750   -1.6750    0.0000 N   0  0  0  0  0  0  0  0  0  0  0  0
    4.7542   -2.4625    0.0000 C   0  0  0  0  0  0  0  0  0  0  0  0
    4.5000   -1.6750    0.0000 N   0  0  0  0  0  0  0  0  0  0  0  0
    4.0917   -3.7667    0.0000 C   0  0  0  0  0  0  0  0  0  0  0  0
    5.5417   -2.7167    0.0000 S   0  0  0  0  0  0  0  0  0  0  0  0
    6.9375   -2.4167    0.0000 C   0  0  0  0  0  0  0  0  0  0  0  0
    2.6417   -2.7167    0.0000 C   0  0  0  0  0  0  0  0  0  0  0  0
    7.5542   -1.8667    0.0000 N   0  0  0  0  0  0  0  0  0  0  0  0
    7.1125   -3.2250    0.0000 O   0  0  0  0  0  0  0  0  0  0  0  0
    4.8000   -4.1750    0.0000 C   0  0  0  0  0  0  0  0  0  0  0  0
    3.3792   -4.1792    0.0000 C   0  0  0  0  0  0  0  0  0  0  0  0
    6.1542   -2.1625    0.0000 C   0  0  0  0  0  0  0  0  0  0  0  0
    4.0917   -5.4125    0.0000 C   0  0  0  0  0  0  0  0  0  0  0  0
    8.3375   -2.1167    0.0000 C   0  0  0  0  0  0  0  0  0  0  0  0
    8.9500   -1.5667    0.0000 C   0  0  0  0  0  0  0  0  0  0  0  0
   10.1750   -0.4667    0.0000 C   0  0  0  0  0  0  0  0  0  0  0  0
    3.3792   -5.0000    0.0000 C   0  0  0  0  0  0  0  0  0  0  0  0
    4.8042   -4.9917    0.0000 C   0  0  0  0  0  0  0  0  0  0  0  0
    4.0917   -6.2375    0.0000 F   0  0  0  0  0  0  0  0  0  0  0  0
    9.7292   -1.8292    0.0000 C   0  0  0  0  0  0  0  0  0  0  0  0
    8.7750   -0.7667    0.0000 C   0  0  0  0  0  0  0  0  0  0  0  0
    9.3792   -0.2125    0.0000 C   0  0  0  0  0  0  0  0  0  0  0  0
   10.3417   -1.2750    0.0000 C   0  0  0  0  0  0  0  0  0  0  0  0
   10.7875    0.0833    0.0000 O   0  0  0  0  0  0  0  0  0  0  0  0
    2.0292   -2.1625    0.0000 C   0  0  0  0  0  0  0  0  0  0  0  0
    2.4667   -3.5167    0.0000 C   0  0  0  0  0  0  0  0  0  0  0  0
   10.6125    0.8958    0.0000 C   0  0  0  0  0  0  0  0  0  0  0  0
    1.2417   -2.4167    0.0000 C   0  0  0  0  0  0  0  0  0  0  0  0
    1.6875   -3.7750    0.0000 C   0  0  0  0  0  0  0  0  0  0  0  0
    1.0667   -3.2250    0.0000 C   0  0  0  0  0  0  0  0  0  0  0  0
  2  1  1  0  0  0  0
  3  2  2  0  0  0  0
  4  1  1  0  0  0  0
  5  4  2  0  0  0  0
  6  1  1  0  0  0  0
  7  4  1  0  0  0  0
  8 14  1  0  0  0  0
  9  2  1  0  0  0  0
 10  8  1  0  0  0  0
 11  8  2  0  0  0  0
 12  6  1  0  0  0  0
 13  6  2  0  0  0  0
 14  7  1  0  0  0  0
 15 19  2  0  0  0  0
 16 10  1  0  0  0  0
 17 16  1  0  0  0  0
 18 24  1  0  0  0  0
 19 13  1  0  0  0  0
 20 12  2  0  0  0  0
 21 15  1  0  0  0  0
 22 17  2  0  0  0  0
 23 17  1  0  0  0  0
 24 23  2  0  0  0  0
 25 22  1  0  0  0  0
 26 18  1  0  0  0  0
 27  9  2  0  0  0  0
 28  9  1  0  0  0  0
 29 26  1  0  0  0  0
 30 27  1  0  0  0  0
 31 28  2  0  0  0  0
 32 31  1  0  0  0  0
  3  5  1  0  0  0  0
 15 20  1  0  0  0  0
 32 30  2  0  0  0  0
 18 25  2  0  0  0  0
M  END
> <#>
1735

> <PLATE>
LAT022

> <ROW>
G

> <COL>
8

> <COORD>
G08

> <LATID>
LAT022G08

> <Supplier>
Chembridge

> <Suplier_CAT#>
7761527

> <Name>
Novel

> <Concentration_(mM)>
2.5

> <IC50_(µM)>
>100

> <Yeast_Active?>
-

> <Pubchem_CID>
NULL

$$$$
