
  -ISIS-  08130814242D

 18 20  0  0  0  0  0  0  0  0999 V2000
   -1.3458    0.6000    0.0000 O   0  0  0  0  0  0  0  0  0  0  0  0
    1.8375   -1.2292    0.0000 C   0  0  0  0  0  0  0  0  0  0  0  0
   -0.2833    0.0000    0.0000 C   0  0  0  0  0  0  0  0  0  0  0  0
    2.9000   -1.8292    0.0000 O   0  0  0  0  0  0  0  0  0  0  0  0
   -0.2833   -1.2292    0.0000 C   0  0  0  0  0  0  0  0  0  0  0  0
    0.7792   -1.8292    0.0000 C   0  0  0  0  0  0  0  0  0  0  0  0
    1.8375    0.0000    0.0000 C   0  0  0  0  0  0  0  0  0  0  0  0
    3.9542   -1.2292    0.0000 C   0  0  0  0  0  0  0  0  0  0  0  0
   -1.3458   -1.8292    0.0000 O   0  0  0  0  0  0  0  0  0  0  0  0
    2.9000    0.6000    0.0000 C   0  0  0  0  0  0  0  0  0  0  0  0
    0.7792    0.6000    0.0000 C   0  0  0  0  0  0  0  0  0  0  0  0
   -2.4000    0.0000    0.0000 C   0  0  3  0  0  0  0  0  0  0  0  0
    3.9542    0.0000    0.0000 C   0  0  0  0  0  0  0  0  0  0  0  0
   -2.4000   -1.2292    0.0000 C   0  0  0  0  0  0  0  0  0  0  0  0
    5.0375   -1.8542    0.0000 O   0  0  0  0  0  0  0  0  0  0  0  0
   -3.4833    0.6333    0.0000 C   0  0  3  0  0  0  0  0  0  0  0  0
   -3.4833    1.8625    0.0000 C   0  0  0  0  0  0  0  0  0  0  0  0
   -4.5625    0.0000    0.0000 C   0  0  0  0  0  0  0  0  0  0  0  0
  2  7  1  0  0  0  0
  3  1  1  0  0  0  0
  4  2  1  0  0  0  0
  5  3  2  0  0  0  0
  6  5  1  0  0  0  0
  7 11  2  0  0  0  0
  8 13  1  0  0  0  0
  9 14  1  0  0  0  0
 10  7  1  0  0  0  0
 11  3  1  0  0  0  0
 12  1  1  0  0  0  0
 13 10  2  0  0  0  0
 14 12  1  0  0  0  0
 15  8  2  0  0  0  0
 16 12  1  0  0  0  0
 17 16  1  0  0  0  0
 18 16  1  0  0  0  0
  9  5  1  0  0  0  0
  6  2  2  0  0  0  0
  8  4  1  0  0  0  0
M  END
> <#>
29

> <PLATE>
LAT001

> <ROW>
E

> <COL>
5

> <COORD>
E05

> <LATID>
LAT001E05

> <Supplier>
Microsource

> <Suplier_CAT#>
00100543

> <Name>
Dihydro-Obliquin

> <Concentration_(mM)>
2.5

> <IC50_(µM)>
5.8

> <Yeast_Active?>
-

> <Pubchem_CID>
3503044

> <Source>
derivative

$$$$
