
  -ISIS-  08130814242D

 11 11  0  0  0  0  0  0  0  0999 V2000
    2.2534   -3.8282    0.0000 C   0  0  0  0  0  0  0  0  0  0  0  0
    3.1457   -3.8282    0.0000 C   0  0  0  0  0  0  0  0  0  0  0  0
    1.8073   -4.6010    0.0000 O   0  0  0  0  0  0  0  0  0  0  0  0
    1.8073   -3.0554    0.0000 O   0  0  0  0  0  0  0  0  0  0  0  0
    3.5919   -4.6010    0.0000 S   0  0  0  0  0  0  0  0  0  0  0  0
    5.8227   -5.3737    0.0000 C   0  0  0  0  0  0  0  0  0  0  0  0
    4.9304   -5.3737    0.0000 C   0  0  0  0  0  0  0  0  0  0  0  0
    4.4842   -4.6010    0.0000 C   0  0  0  0  0  0  0  0  0  0  0  0
    4.9304   -3.8282    0.0000 C   0  0  0  0  0  0  0  0  0  0  0  0
    5.8227   -3.8282    0.0000 C   0  0  0  0  0  0  0  0  0  0  0  0
    6.2689   -4.6010    0.0000 N   0  0  0  0  0  0  0  0  0  0  0  0
  1  2  1  0  0  0  0
  1  3  2  0  0  0  0
  1  4  1  0  0  0  0
  6  7  1  0  0  0  0
  7  8  2  0  0  0  0
  8  9  1  0  0  0  0
  9 10  2  0  0  0  0
 10 11  1  0  0  0  0
  6 11  2  0  0  0  0
  5  8  1  0  0  0  0
  2  5  1  0  0  0  0
M  END
> <#>
501

> <PLATE>
LAT007

> <ROW>
E

> <COL>
4

> <COORD>
E04

> <LATID>
LAT007E04

> <Supplier>
Aldrich

> <Suplier_CAT#>
183237

> <Name>
(4-Pyridylthio)Acetic Acid

> <Concentration_(mM)>
2.5

> <IC50_(µM)>
inactive

> <Yeast_Active?>
-

> <Pubchem_CID>
82574

$$$$
