
  -ISIS-  08130814242D

 22 24  0  0  0  0  0  0  0  0999 V2000
    8.6048    2.3515    0.0000 C   0  0  0  0  0  0  0  0  0  0  0  0
    8.6082    1.1015    0.0000 C   0  0  0  0  0  0  0  0  0  0  0  0
    7.5274    0.4735    0.0000 C   0  0  0  0  0  0  0  0  0  0  0  0
    6.4432    1.0955    0.0000 C   0  0  0  0  0  0  0  0  0  0  0  0
    7.5309   -0.7765    0.0000 C   0  0  0  0  0  0  0  0  0  0  0  0
    8.6152   -1.3985    0.0000 C   0  0  0  0  0  0  0  0  0  0  0  0
    9.6960   -0.7705    0.0000 C   0  0  0  0  0  0  0  0  0  0  0  0
    9.6925    0.4795    0.0000 C   0  0  0  0  0  0  0  0  0  0  0  0
    9.6856    2.9795    0.0000 O   0  0  0  0  0  0  0  0  0  0  0  0
    7.5205    2.9735    0.0000 O   0  0  0  0  0  0  0  0  0  0  0  0
    6.4397    2.3455    0.0000 O   0  0  0  0  0  0  0  0  0  0  0  0
    5.3624    0.4675    0.0000 N   0  0  0  0  0  0  0  0  0  0  0  0
    5.3659   -0.7825    0.0000 C   0  0  0  0  0  0  0  0  0  0  0  0
    6.4501   -1.4045    0.0000 C   0  0  0  0  0  0  0  0  0  0  0  0
    6.4536   -2.6545    0.0000 C   0  0  0  0  0  0  0  0  0  0  0  0
    5.3728   -3.2825    0.0000 C   0  0  0  0  0  0  0  0  0  0  0  0
    4.2885   -2.6605    0.0000 C   0  0  0  0  0  0  0  0  0  0  0  0
    3.2077   -3.2885    0.0000 C   0  0  0  0  0  0  0  0  0  0  0  0
    2.1235   -2.6665    0.0000 C   0  0  0  0  0  0  0  0  0  0  0  0
    2.1200   -1.4165    0.0000 C   0  0  0  0  0  0  0  0  0  0  0  0
    3.2008   -0.7885    0.0000 C   0  0  0  0  0  0  0  0  0  0  0  0
    4.2851   -1.4105    0.0000 C   0  0  0  0  0  0  0  0  0  0  0  0
  2  1  1  0  0  0  0
  2  3  1  0  0  0  0
  3  4  1  0  0  0  0
  3  5  2  0  0  0  0
  6  5  1  0  0  0  0
  6  7  2  0  0  0  0
  7  8  1  0  0  0  0
  2  8  2  0  0  0  0
  1  9  2  0  0  0  0
  1 10  1  0  0  0  0
  4 11  2  0  0  0  0
  4 12  1  0  0  0  0
 13 14  1  0  0  0  0
 14 15  2  0  0  0  0
 15 16  1  0  0  0  0
 16 17  2  0  0  0  0
 17 18  1  0  0  0  0
 18 19  2  0  0  0  0
 19 20  1  0  0  0  0
 20 21  2  0  0  0  0
 21 22  1  0  0  0  0
 13 22  2  0  0  0  0
 17 22  1  0  0  0  0
 12 13  1  0  0  0  0
M  END
> <#>
538

> <PLATE>
LAT007

> <ROW>
B

> <COL>
9

> <COORD>
b09

> <LATID>
LAT007B09

> <Supplier>
ChemService

> <Suplier_CAT#>
N-1-Naphthylphthalamic Acid

> <Name>
N-1-Naphthylphthalamic Acid

> <Concentration_(mM)>
2.5

> <IC50_(µM)>
97

> <Yeast_Active?>
-

> <Pubchem_CID>
8594

$$$$
