
  -ISIS-  08130814242D

 16 17  0  0  0  0  0  0  0  0999 V2000
   -3.1458    2.8000    0.0000 N   0  0  0  0  0  0  0  0  0  0  0  0
   -3.8125    2.5333    0.0000 C   0  0  0  0  0  0  0  0  0  0  0  0
   -3.0500    1.6458    0.0000 C   0  0  0  0  0  0  0  0  0  0  0  0
   -2.6833    2.2500    0.0000 C   0  0  0  0  0  0  0  0  0  0  0  0
   -3.7500    1.8125    0.0000 N   0  0  0  0  0  0  0  0  0  0  0  0
   -2.7125    1.0125    0.0000 C   0  0  0  0  0  0  0  0  0  0  0  0
   -1.9833    1.0000    0.0000 C   0  0  0  0  0  0  0  0  0  0  0  0
   -1.6458    0.3708    0.0000 C   0  0  0  0  0  0  0  0  0  0  0  0
   -4.4208    2.9125    0.0000 S   0  0  0  0  0  0  0  0  0  0  0  0
   -1.9500    2.3125    0.0000 O   0  0  0  0  0  0  0  0  0  0  0  0
   -0.9125    0.3708    0.0000 C   0  0  0  0  0  0  0  0  0  0  0  0
   -2.0125   -0.2292    0.0000 Cl  0  0  0  0  0  0  0  0  0  0  0  0
   -0.5625   -0.2375    0.0000 Cl  0  0  0  0  0  0  0  0  0  0  0  0
   -1.6208    1.6333    0.0000 C   0  0  0  0  0  0  0  0  0  0  0  0
   -0.9125    1.6333    0.0000 C   0  0  0  0  0  0  0  0  0  0  0  0
   -0.5500    1.0000    0.0000 C   0  0  0  0  0  0  0  0  0  0  0  0
  2  1  1  0  0  0  0
  3  4  1  0  0  0  0
  4  1  1  0  0  0  0
  5  2  1  0  0  0  0
  6  3  2  0  0  0  0
  7  6  1  0  0  0  0
  8  7  2  0  0  0  0
  9  2  2  0  0  0  0
 10  4  2  0  0  0  0
 11  8  1  0  0  0  0
 12  8  1  0  0  0  0
 13 11  1  0  0  0  0
 14  7  1  0  0  0  0
 15 14  2  0  0  0  0
 16 15  1  0  0  0  0
  5  3  1  0  0  0  0
 16 11  2  0  0  0  0
M  END
> <#>
2005

> <PLATE>
LAT026

> <ROW>
E

> <COL>
2

> <COORD>
E02

> <LATID>
LAT026E02

> <Supplier>
Chembridge

> <Suplier_CAT#>
5583991

> <Sec_Name>
180_B11

> <Concentration_(mM)>
2.5

> <IC50_(µM)>
inactive

> <Yeast_Active?>
-

> <Pubchem_CID>
872377

$$$$
