
  -ISIS-  08130814242D

 35 37  0  0  0  0  0  0  0  0999 V2000
    3.4542   -0.0167    0.0000 N   0  3  0  0  0  0  0  0  0  0  0  0
    3.3500   -0.7542    0.0000 C   0  0  0  0  0  0  0  0  0  0  0  0
    8.1292   -3.8000    0.0000 N   0  0  0  0  0  0  0  0  0  0  0  0
    7.6667   -2.5792    0.0000 C   0  0  0  0  0  0  0  0  0  0  0  0
    8.2500   -3.0542    0.0000 C   0  0  0  0  0  0  0  0  0  0  0  0
    2.6500   -1.0375    0.0000 C   0  0  0  0  0  0  0  0  0  0  0  0
    2.5292   -1.7792    0.0000 C   0  0  0  0  0  0  0  0  0  0  0  0
    1.8292   -2.0500    0.0000 C   0  0  3  0  0  0  0  0  0  0  0  0
    5.9167   -1.1667    0.0000 C   0  0  0  0  0  0  0  0  0  0  0  0
    6.9667   -2.8500    0.0000 C   0  0  0  0  0  0  0  0  0  0  0  0
    3.9292   -1.2375    0.0000 C   0  0  0  0  0  0  0  0  0  0  0  0
    7.4292   -4.0667    0.0000 C   0  0  0  0  0  0  0  0  0  0  0  0
    7.2000   -1.3667    0.0000 N   0  0  0  0  0  0  0  0  0  0  0  0
    4.1542    0.2458    0.0000 O   0  5  0  0  0  0  0  0  0  0  0  0
    2.8792    0.4458    0.0000 O   0  0  0  0  0  0  0  0  0  0  0  0
    6.8500   -3.5875    0.0000 C   0  0  0  0  0  0  0  0  0  0  0  0
    1.1375   -2.2292    0.0000 C   0  0  0  0  0  0  0  0  0  0  0  0
    7.7792   -1.8375    0.0000 C   0  0  0  0  0  0  0  0  0  0  0  0
    4.6292   -0.9667    0.0000 O   0  0  0  0  0  0  0  0  0  0  0  0
    6.5000   -1.6375    0.0000 N   0  0  0  0  0  0  0  0  0  0  0  0
    6.0292   -0.4292    0.0000 O   0  0  0  0  0  0  0  0  0  0  0  0
    3.1042   -2.2500    0.0000 C   0  0  0  0  0  0  0  0  0  0  0  0
    3.8167   -1.9792    0.0000 C   0  0  0  0  0  0  0  0  0  0  0  0
    0.6167   -1.6875    0.0000 C   0  0  3  0  0  0  0  0  0  0  0  0
    5.2167   -1.4375    0.0000 C   0  0  0  0  0  0  0  0  0  0  0  0
    8.9500   -2.7875    0.0000 Cl  0  0  0  0  0  0  0  0  0  0  0  0
    2.0375   -2.8000    0.0000 C   0  0  0  0  0  0  0  0  0  0  0  0
    1.2667   -1.5292    0.0000 C   0  0  0  0  0  0  0  0  0  0  0  0
    7.3167   -4.8042    0.0000 C   0  0  0  0  0  0  0  0  0  0  0  0
    6.1500   -3.8542    0.0000 C   0  0  0  0  0  0  0  0  0  0  0  0
    0.0167   -2.1792    0.0000 C   0  0  0  0  0  0  0  0  0  0  0  0
    0.1875   -1.1292    0.0000 C   0  0  0  0  0  0  0  0  0  0  0  0
    0.8792   -0.9667    0.0000 C   0  0  0  0  0  0  0  0  0  0  0  0
    6.6167   -5.0792    0.0000 C   0  0  0  0  0  0  0  0  0  0  0  0
    6.0292   -4.6000    0.0000 C   0  0  0  0  0  0  0  0  0  0  0  0
  2  1  1  0  0  0  0
  3  5  1  0  0  0  0
  4 18  1  0  0  0  0
  5  4  2  0  0  0  0
  6  2  2  0  0  0  0
  7  6  1  0  0  0  0
  8  7  1  0  0  0  0
  9 25  1  0  0  0  0
 10  4  1  0  0  0  0
 11  2  1  0  0  0  0
 12 16  1  0  0  0  0
 13 20  1  0  0  0  0
 14  1  1  0  0  0  0
 15  1  2  0  0  0  0
 16 10  2  0  0  0  0
 17  8  1  0  0  0  0
 18 13  2  0  0  0  0
 19 11  1  0  0  0  0
 20  9  1  0  0  0  0
 21  9  2  0  0  0  0
 22 23  1  0  0  0  0
 23 11  2  0  0  0  0
 24 17  1  0  0  0  0
 25 19  1  0  0  0  0
 26  5  1  0  0  0  0
 27  8  1  0  0  0  0
 28  8  1  0  0  0  0
 29 12  1  0  0  0  0
 30 16  1  0  0  0  0
 31 24  1  0  0  0  0
 32 24  1  0  0  0  0
 33 24  1  0  0  0  0
 34 35  1  0  0  0  0
 35 30  2  0  0  0  0
 22  7  2  0  0  0  0
  3 12  2  0  0  0  0
 29 34  2  0  0  0  0
M  CHG  2   1   1  14  -1
M  END
> <#>
1616

> <PLATE>
LAT021

> <ROW>
H

> <COL>
3

> <COORD>
H03

> <LATID>
LAT021H03

> <Supplier>
Chembridge

> <Suplier_CAT#>
5232261

> <Name>
Novel

> <Concentration_(mM)>
2.5

> <IC50_(µM)>
inactive

> <Yeast_Active?>
-

> <Pubchem_CID>
2318449

$$$$
