
  -ISIS-  08130814242D

 21 22  0  0  0  0  0  0  0  0999 V2000
    2.9417   -2.3125    0.0000 C   0  0  0  0  0  0  0  0  0  0  0  0
    2.5667   -1.6667    0.0000 C   0  0  3  0  0  0  0  0  0  0  0  0
    2.5667   -2.9625    0.0000 N   0  0  3  0  0  0  0  0  0  0  0  0
    3.6917   -2.3125    0.0000 O   0  0  0  0  0  0  0  0  0  0  0  0
    2.9417   -3.6042    0.0000 C   0  0  0  0  0  0  0  0  0  0  0  0
    1.8167   -1.6667    0.0000 C   0  0  0  0  0  0  0  0  0  0  0  0
    1.8167   -5.5542    0.0000 N   0  0  0  0  0  0  0  0  0  0  0  0
    2.9417   -1.0167    0.0000 C   0  0  0  0  0  0  0  0  0  0  0  0
    2.5667   -4.2542    0.0000 C   0  0  0  0  0  0  0  0  0  0  0  0
    1.8167   -2.9625    0.0000 C   0  0  0  0  0  0  0  0  0  0  0  0
    3.6917   -1.0167    0.0000 O   0  0  0  0  0  0  0  0  0  0  0  0
    1.4417   -4.9042    0.0000 C   0  0  0  0  0  0  0  0  0  0  0  0
    2.5667   -5.5542    0.0000 C   0  0  0  0  0  0  0  0  0  0  0  0
    1.4417   -2.3167    0.0000 C   0  0  0  0  0  0  0  0  0  0  0  0
    1.4417   -1.0167    0.0000 C   0  0  0  0  0  0  0  0  0  0  0  0
    1.8167   -4.2542    0.0000 C   0  0  0  0  0  0  0  0  0  0  0  0
    2.9417   -4.9042    0.0000 C   0  0  0  0  0  0  0  0  0  0  0  0
    1.5167   -2.4750    0.0000 C   0  0  0  0  0  0  0  0  0  0  0  0
    0.6917   -1.0167    0.0000 C   0  0  0  0  0  0  0  0  0  0  0  0
    0.6917   -2.3167    0.0000 C   0  0  0  0  0  0  0  0  0  0  0  0
    0.3167   -1.6667    0.0000 C   0  0  0  0  0  0  0  0  0  0  0  0
  2  1  1  0  0  0  0
  3  1  1  0  0  0  0
  4  1  2  0  0  0  0
  5  3  1  0  0  0  0
  6  2  1  0  0  0  0
  7 13  2  0  0  0  0
  8  2  1  0  0  0  0
  9  5  1  0  0  0  0
 10  3  1  0  0  0  0
 11  8  1  0  0  0  0
 12 16  2  0  0  0  0
 13 17  1  0  0  0  0
 14  6  2  0  0  0  0
 15  6  1  0  0  0  0
 16  9  1  0  0  0  0
 17  9  2  0  0  0  0
 18 10  1  0  0  0  0
 19 15  2  0  0  0  0
 20 14  1  0  0  0  0
 21 19  1  0  0  0  0
 12  7  1  0  0  0  0
 21 20  2  0  0  0  0
M  END
> <#>
140

> <PLATE>
LAT002

> <ROW>
D

> <COL>
9

> <COORD>
D09

> <LATID>
LAT002D09

> <Supplier>
Microsource

> <Suplier_CAT#>
01500599

> <Name>
Tropicamide

> <Concentration_(mM)>
2.5

> <IC50_(µM)>
81

> <Yeast_Active?>
-

> <Pubchem_CID>
5593

> <Description>
Anticholinergic (Opthalmic)

$$$$
