
  -ISIS-  08130814242D

 17 18  0  0  0  0  0  0  0  0999 V2000
   -1.1958   -0.9667    0.0000 S   0  0  3  0  0  0  0  0  0  0  0  0
   -0.2625   -0.9667    0.0000 C   0  0  0  0  0  0  0  0  0  0  0  0
   -2.1208   -0.9667    0.0000 N   0  0  3  0  0  0  0  0  0  0  0  0
    0.2042   -0.1542    0.0000 C   0  0  0  0  0  0  0  0  0  0  0  0
   -1.1958   -1.9000    0.0000 O   0  0  0  0  0  0  0  0  0  0  0  0
   -1.1958   -0.0292    0.0000 O   0  0  0  0  0  0  0  0  0  0  0  0
    0.2042   -1.7792    0.0000 C   0  0  0  0  0  0  0  0  0  0  0  0
    1.1500   -0.1542    0.0000 C   0  0  0  0  0  0  0  0  0  0  0  0
    1.6167   -0.9667    0.0000 C   0  0  0  0  0  0  0  0  0  0  0  0
    1.1500   -1.7792    0.0000 C   0  0  0  0  0  0  0  0  0  0  0  0
    2.5500   -0.9667    0.0000 Br  0  0  0  0  0  0  0  0  0  0  0  0
   -2.5958   -0.1542    0.0000 C   0  0  0  0  0  0  0  0  0  0  0  0
   -2.5958   -1.7792    0.0000 C   0  0  0  0  0  0  0  0  0  0  0  0
   -0.2625    0.6500    0.0000 C   0  0  0  0  0  0  0  0  0  0  0  0
   -3.5333   -0.1542    0.0000 C   0  0  0  0  0  0  0  0  0  0  0  0
   -3.5333   -1.7792    0.0000 C   0  0  0  0  0  0  0  0  0  0  0  0
   -4.0000   -0.9667    0.0000 C   0  0  0  0  0  0  0  0  0  0  0  0
  2  1  1  0  0  0  0
  3  1  1  0  0  0  0
  4  2  1  0  0  0  0
  5  1  2  0  0  0  0
  6  1  2  0  0  0  0
  7  2  2  0  0  0  0
  8  4  2  0  0  0  0
  9 10  2  0  0  0  0
 10  7  1  0  0  0  0
 11  9  1  0  0  0  0
 12  3  1  0  0  0  0
 13  3  1  0  0  0  0
 14  4  1  0  0  0  0
 15 12  1  0  0  0  0
 16 13  1  0  0  0  0
 17 16  1  0  0  0  0
 15 17  1  0  0  0  0
  8  9  1  0  0  0  0
M  END
> <#>
1913

> <PLATE>
LAT024

> <ROW>
A

> <COL>
11

> <COORD>
A11

> <LATID>
LAT024A11

> <Supplier>
Chembridge

> <Suplier_CAT#>
5510021

> <Name>
Novel

> <Sec_Name>
146_D02

> <Concentration_(mM)>
2.5

> <IC50_(µM)>
68

> <Yeast_Active?>
-

> <Pubchem_CID>
759916

$$$$
