
  -ISIS-  08130814242D

 31 34  0  0  0  0  0  0  0  0999 V2000
   -0.7625    0.8458    0.0000 N   0  0  3  0  0  0  0  0  0  0  0  0
   -0.1333    1.6000    0.0000 C   0  0  0  0  0  0  0  0  0  0  0  0
   -0.1458   -0.0292    0.0000 C   0  0  0  0  0  0  0  0  0  0  0  0
    2.5875    0.2458    0.0000 C   0  0  0  0  0  0  0  0  0  0  0  0
    0.8500    0.2500    0.0000 C   0  0  3  0  0  0  0  0  0  0  0  0
    0.8500    1.3208    0.0000 C   0  0  0  0  0  0  0  0  0  0  0  0
   -1.7458    0.8333    0.0000 C   0  0  0  0  0  0  0  0  0  0  0  0
    1.7000   -0.2292    0.0000 S   0  0  0  0  0  0  0  0  0  0  0  0
    2.5792    1.2500    0.0000 N   0  0  0  0  0  0  0  0  0  0  0  0
   -2.2458   -0.0292    0.0000 C   0  0  0  0  0  0  0  0  0  0  0  0
    3.5667   -0.2542    0.0000 N   0  0  0  0  0  0  0  0  0  0  0  0
   -0.4333    2.5958    0.0000 O   0  0  0  0  0  0  0  0  0  0  0  0
   -0.4333   -1.0167    0.0000 O   0  0  0  0  0  0  0  0  0  0  0  0
   -3.3000   -0.0292    0.0000 C   0  0  0  0  0  0  0  0  0  0  0  0
    3.4667    1.7708    0.0000 C   0  0  0  0  0  0  0  0  0  0  0  0
    3.5667   -1.2500    0.0000 C   0  0  0  0  0  0  0  0  0  0  0  0
   -2.2458    1.7458    0.0000 C   0  0  0  0  0  0  0  0  0  0  0  0
   -3.8125   -0.9667    0.0000 O   0  0  0  0  0  0  0  0  0  0  0  0
   -3.3000    1.7458    0.0000 C   0  0  0  0  0  0  0  0  0  0  0  0
   -3.7958    0.8333    0.0000 C   0  0  0  0  0  0  0  0  0  0  0  0
    4.3375    1.2833    0.0000 C   0  0  0  0  0  0  0  0  0  0  0  0
    3.4667    2.8000    0.0000 C   0  0  0  0  0  0  0  0  0  0  0  0
    4.4500   -1.7792    0.0000 C   0  0  0  0  0  0  0  0  0  0  0  0
    2.6542   -1.7542    0.0000 C   0  0  0  0  0  0  0  0  0  0  0  0
   -4.7708   -0.9667    0.0000 C   0  0  0  0  0  0  0  0  0  0  0  0
    4.3542    3.3125    0.0000 C   0  0  0  0  0  0  0  0  0  0  0  0
    5.2375    1.8125    0.0000 C   0  0  0  0  0  0  0  0  0  0  0  0
    2.6542   -2.7875    0.0000 C   0  0  0  0  0  0  0  0  0  0  0  0
    4.4500   -2.8375    0.0000 C   0  0  0  0  0  0  0  0  0  0  0  0
    3.5292   -3.3042    0.0000 C   0  0  0  0  0  0  0  0  0  0  0  0
    5.2375    2.8125    0.0000 C   0  0  0  0  0  0  0  0  0  0  0  0
  2  1  1  0  0  0  0
  3  1  1  0  0  0  0
  4  8  1  0  0  0  0
  5  3  1  0  0  0  0
  6  2  1  0  0  0  0
  7  1  1  0  0  0  0
  8  5  1  0  0  0  0
  9  4  2  0  0  0  0
 10  7  2  0  0  0  0
 11  4  1  0  0  0  0
 12  2  2  0  0  0  0
 13  3  2  0  0  0  0
 14 10  1  0  0  0  0
 15  9  1  0  0  0  0
 16 11  1  0  0  0  0
 17  7  1  0  0  0  0
 18 14  1  0  0  0  0
 19 17  2  0  0  0  0
 20 19  1  0  0  0  0
 21 15  1  0  0  0  0
 22 15  2  0  0  0  0
 23 16  2  0  0  0  0
 24 16  1  0  0  0  0
 25 18  1  0  0  0  0
 26 22  1  0  0  0  0
 27 21  2  0  0  0  0
 28 24  2  0  0  0  0
 29 23  1  0  0  0  0
 30 28  1  0  0  0  0
 31 26  2  0  0  0  0
  6  5  1  0  0  0  0
 20 14  2  0  0  0  0
 30 29  2  0  0  0  0
 31 27  1  0  0  0  0
M  END
> <#>
709

> <PLATE>
LAT009

> <ROW>
E

> <COL>
10

> <COORD>
E10

> <LATID>
LAT009E10

> <Supplier>
Chembridge

> <Suplier_CAT#>
5542513

> <Name>
Novel

> <Sec_Name>
159_A10

> <Concentration_(mM)>
2.5

> <IC50_(µM)>
>100

> <Yeast_Active?>
-

> <Pubchem_CID>
2851273

$$$$
