
  -ISIS-  08130814242D

 17 19  0  0  0  0  0  0  0  0999 V2000
   -3.2000    1.1125    0.0000 C   0  0  0  0  0  0  0  0  0  0  0  0
   -2.6625    0.7958    0.0000 C   0  0  0  0  0  0  0  0  0  0  0  0
   -2.6625    0.1708    0.0000 C   0  0  0  0  0  0  0  0  0  0  0  0
   -3.2000   -0.1500    0.0000 C   0  0  0  0  0  0  0  0  0  0  0  0
   -3.7458    0.7958    0.0000 C   0  0  0  0  0  0  0  0  0  0  0  0
   -3.7458    0.1708    0.0000 C   0  0  0  0  0  0  0  0  0  0  0  0
   -3.2000    1.7333    0.0000 O   0  0  0  0  0  0  0  0  0  0  0  0
   -2.1208    1.1125    0.0000 C   0  0  0  0  0  0  0  0  0  0  0  0
   -3.2000   -0.7875    0.0000 O   0  0  0  0  0  0  0  0  0  0  0  0
   -2.1208   -0.1500    0.0000 C   0  0  0  0  0  0  0  0  0  0  0  0
   -2.1208    1.7333    0.0000 O   0  0  0  0  0  0  0  0  0  0  0  0
   -4.2833    1.1125    0.0000 C   0  0  0  0  0  0  0  0  0  0  0  0
   -4.2833   -0.1500    0.0000 C   0  0  0  0  0  0  0  0  0  0  0  0
   -1.5833    0.1708    0.0000 C   0  0  0  0  0  0  0  0  0  0  0  0
   -1.5833    0.7958    0.0000 C   0  0  0  0  0  0  0  0  0  0  0  0
   -4.8208    0.7958    0.0000 C   0  0  0  0  0  0  0  0  0  0  0  0
   -4.8208    0.1708    0.0000 C   0  0  0  0  0  0  0  0  0  0  0  0
  2  1  1  0  0  0  0
  3  2  2  0  0  0  0
  4  6  1  0  0  0  0
  5  1  1  0  0  0  0
  6  5  2  0  0  0  0
  7  1  2  0  0  0  0
  8  2  1  0  0  0  0
  9  4  2  0  0  0  0
 10  3  1  0  0  0  0
 11  8  1  0  0  0  0
 12  5  1  0  0  0  0
 13  6  1  0  0  0  0
 14 15  1  0  0  0  0
 15  8  2  0  0  0  0
 16 12  2  0  0  0  0
 17 16  1  0  0  0  0
  4  3  1  0  0  0  0
 17 13  2  0  0  0  0
 10 14  2  0  0  0  0
M  END
> <#>
1174

> <PLATE>
LAT015

> <ROW>
F

> <COL>
8

> <COORD>
F08

> <LATID>
LAT015F08

> <Supplier>
Chembridge

> <Suplier_CAT#>
5134246

> <Name>
Novel

> <Concentration_(mM)>
2.5

> <IC50_(µM)>
inactive

> <Yeast_Active?>
-

> <Pubchem_CID>
NULL

$$$$
