
  -ISIS-  08130814242D

 29 33  0  0  0  0  0  0  0  0999 V2000
    5.1292   -2.1917    0.0000 C   0  0  0  0  0  0  0  0  0  0  0  0
    5.2042   -2.9375    0.0000 C   0  0  0  0  0  0  0  0  0  0  0  0
    5.8125   -1.8792    0.0000 C   0  0  0  0  0  0  0  0  0  0  0  0
    5.9417   -3.0917    0.0000 N   0  0  0  0  0  0  0  0  0  0  0  0
    4.4792   -1.8167    0.0000 N   0  0  0  0  0  0  0  0  0  0  0  0
    3.1792   -1.0667    0.0000 C   0  0  3  0  0  0  0  0  0  0  0  0
    2.5292   -0.6875    0.0000 O   0  0  0  0  0  0  0  0  0  0  0  0
    6.3167   -2.4417    0.0000 C   0  0  0  0  0  0  0  0  0  0  0  0
    3.8292   -0.6917    0.0000 C   0  0  0  0  0  0  0  0  0  0  0  0
    1.8750   -1.0667    0.0000 C   0  0  0  0  0  0  0  0  0  0  0  0
    4.4792   -1.0667    0.0000 N   0  0  0  0  0  0  0  0  0  0  0  0
    1.8750   -1.8167    0.0000 C   0  0  0  0  0  0  0  0  0  0  0  0
    2.5292   -2.1917    0.0000 O   0  0  0  0  0  0  0  0  0  0  0  0
    1.2167   -0.6875    0.0000 C   0  0  0  0  0  0  0  0  0  0  0  0
    1.2167   -2.1917    0.0000 C   0  0  0  0  0  0  0  0  0  0  0  0
    3.1792   -1.8167    0.0000 C   0  0  0  0  0  0  0  0  0  0  0  0
    6.0417   -1.1667    0.0000 C   0  0  0  0  0  0  0  0  0  0  0  0
    0.5667   -1.0667    0.0000 C   0  0  0  0  0  0  0  0  0  0  0  0
    4.6500   -3.4375    0.0000 O   0  0  0  0  0  0  0  0  0  0  0  0
    0.5667   -1.8167    0.0000 C   0  0  0  0  0  0  0  0  0  0  0  0
    3.8292    0.0583    0.0000 O   0  0  0  0  0  0  0  0  0  0  0  0
    7.0500   -2.2875    0.0000 C   0  0  0  0  0  0  0  0  0  0  0  0
    6.7792   -1.0167    0.0000 C   0  0  0  0  0  0  0  0  0  0  0  0
    7.2792   -1.5667    0.0000 C   0  0  0  0  0  0  0  0  0  0  0  0
    7.0125   -0.3042    0.0000 Br  0  0  0  0  0  0  0  0  0  0  0  0
   -0.0875   -0.6875    0.0000 C   0  0  0  0  0  0  0  0  0  0  0  0
   -0.0875   -2.1917    0.0000 C   0  0  0  0  0  0  0  0  0  0  0  0
   -0.7333   -1.8167    0.0000 C   0  0  0  0  0  0  0  0  0  0  0  0
   -0.7333   -1.0667    0.0000 C   0  0  0  0  0  0  0  0  0  0  0  0
  2  1  1  0  0  0  0
  3  1  1  0  0  0  0
  4  2  1  0  0  0  0
  5  1  2  0  0  0  0
  6  9  1  0  0  0  0
  7  6  1  0  0  0  0
  8  3  2  0  0  0  0
  9 11  1  0  0  0  0
 10  7  1  0  0  0  0
 11  5  1  0  0  0  0
 12 13  1  0  0  0  0
 13 16  1  0  0  0  0
 14 10  1  0  0  0  0
 15 12  1  0  0  0  0
 16  6  1  0  0  0  0
 17  3  1  0  0  0  0
 18 14  2  0  0  0  0
 19  2  2  0  0  0  0
 20 15  2  0  0  0  0
 21  9  2  0  0  0  0
 22  8  1  0  0  0  0
 23 17  2  0  0  0  0
 24 23  1  0  0  0  0
 25 23  1  0  0  0  0
 26 18  1  0  0  0  0
 27 20  1  0  0  0  0
 28 27  2  0  0  0  0
 29 26  2  0  0  0  0
  8  4  1  0  0  0  0
 24 22  2  0  0  0  0
 12 10  2  0  0  0  0
 18 20  1  0  0  0  0
 28 29  1  0  0  0  0
M  END
> <#>
974

> <PLATE>
LAT013

> <ROW>
F

> <COL>
3

> <COORD>
F03

> <LATID>
LAT013F03

> <Supplier>
Chembridge

> <Suplier_CAT#>
5753157

> <Name>
Novel

> <Sec_Name>
238_B07

> <Concentration_(mM)>
2.5

> <IC50_(µM)>
100

> <Yeast_Active?>
-

> <Pubchem_CID>
NULL

$$$$
