
  -ISIS-  08130814242D

 20 22  0  0  0  0  0  0  0  0999 V2000
   -1.4958   -0.3000    0.0000 C   0  0  0  0  0  0  0  0  0  0  0  0
   -1.4958    0.7833    0.0000 C   0  0  0  0  0  0  0  0  0  0  0  0
   -2.4125   -0.8167    0.0000 C   0  0  0  0  0  0  0  0  0  0  0  0
   -2.4125    1.3208    0.0000 C   0  0  0  0  0  0  0  0  0  0  0  0
   -3.3333   -0.3000    0.0000 C   0  0  0  0  0  0  0  0  0  0  0  0
   -3.3333    0.7833    0.0000 C   0  0  0  0  0  0  0  0  0  0  0  0
   -0.5708   -0.8167    0.0000 C   0  0  0  0  0  0  0  0  0  0  0  0
   -0.5708    1.3208    0.0000 C   0  0  0  0  0  0  0  0  0  0  0  0
    0.3500   -0.3000    0.0000 C   0  0  0  0  0  0  0  0  0  0  0  0
    0.3500    0.7833    0.0000 C   0  0  0  0  0  0  0  0  0  0  0  0
   -2.4125    2.3833    0.0000 O   0  0  0  0  0  0  0  0  0  0  0  0
   -2.4125   -1.9000    0.0000 O   0  0  0  0  0  0  0  0  0  0  0  0
   -0.5708    2.3833    0.0000 N   0  0  0  0  0  0  0  0  0  0  0  0
   -0.5708   -1.9000    0.0000 O   0  0  0  0  0  0  0  0  0  0  0  0
    1.2667    1.3208    0.0000 O   0  0  0  0  0  0  0  0  0  0  0  0
   -4.2500    1.3208    0.0000 C   0  0  0  0  0  0  0  0  0  0  0  0
   -4.2500   -0.8167    0.0000 C   0  0  0  0  0  0  0  0  0  0  0  0
    2.1875    0.8000    0.0000 C   0  0  0  0  0  0  0  0  0  0  0  0
   -5.1708   -0.3000    0.0000 C   0  0  0  0  0  0  0  0  0  0  0  0
   -5.1708    0.7833    0.0000 C   0  0  0  0  0  0  0  0  0  0  0  0
  2  1  2  0  0  0  0
  3  1  1  0  0  0  0
  4  2  1  0  0  0  0
  5  3  1  0  0  0  0
  6  5  2  0  0  0  0
  7  1  1  0  0  0  0
  8  2  1  0  0  0  0
  9  7  2  0  0  0  0
 10  9  1  0  0  0  0
 11  4  2  0  0  0  0
 12  3  2  0  0  0  0
 13  8  1  0  0  0  0
 14  7  1  0  0  0  0
 15 10  1  0  0  0  0
 16  6  1  0  0  0  0
 17  5  1  0  0  0  0
 18 15  1  0  0  0  0
 19 17  2  0  0  0  0
 20 19  1  0  0  0  0
 10  8  2  0  0  0  0
  6  4  1  0  0  0  0
 16 20  2  0  0  0  0
M  END
> <#>
1397

> <PLATE>
LAT018

> <ROW>
E

> <COL>
6

> <COORD>
E06

> <LATID>
LAT018E06

> <Supplier>
Chembridge

> <Suplier_CAT#>
5310026

> <Name>
Novel

> <Concentration_(mM)>
2.5

> <IC50_(µM)>
inactive

> <Yeast_Active?>
-

> <Pubchem_CID>
NULL

$$$$
