
  -ISIS-  08130814242D

 25 28  0  0  0  0  0  0  0  0999 V2000
   -1.6208    1.0958    0.0000 N   0  0  3  0  0  0  0  0  0  0  0  0
   -2.2000    1.4208    0.0000 C   0  0  0  0  0  0  0  0  0  0  0  0
   -1.6208    0.4333    0.0000 C   0  0  3  0  0  0  0  0  0  0  0  0
   -2.2000    0.1000    0.0000 N   0  0  0  0  0  0  0  0  0  0  0  0
   -2.7833    1.0958    0.0000 C   0  0  0  0  0  0  0  0  0  0  0  0
   -2.7833    0.4333    0.0000 C   0  0  0  0  0  0  0  0  0  0  0  0
   -1.0833    0.0458    0.0000 C   0  0  0  0  0  0  0  0  0  0  0  0
   -1.0458    1.4208    0.0000 C   0  0  0  0  0  0  0  0  0  0  0  0
   -2.2000    2.0833    0.0000 O   0  0  0  0  0  0  0  0  0  0  0  0
   -0.4833    0.3708    0.0000 C   0  0  0  0  0  0  0  0  0  0  0  0
   -1.0833   -0.6542    0.0000 C   0  0  0  0  0  0  0  0  0  0  0  0
   -3.3625    1.4208    0.0000 C   0  0  0  0  0  0  0  0  0  0  0  0
    0.0792   -0.6792    0.0000 C   0  0  0  0  0  0  0  0  0  0  0  0
   -0.5000   -0.9792    0.0000 C   0  0  0  0  0  0  0  0  0  0  0  0
    0.0792    0.0208    0.0000 C   0  0  0  0  0  0  0  0  0  0  0  0
   -3.3625    0.1000    0.0000 C   0  0  0  0  0  0  0  0  0  0  0  0
    0.6375   -1.0000    0.0000 O   0  0  0  0  0  0  0  0  0  0  0  0
   -0.4625    1.0958    0.0000 C   0  0  0  0  0  0  0  0  0  0  0  0
   -1.0458    2.0958    0.0000 C   0  0  0  0  0  0  0  0  0  0  0  0
    1.2042   -0.6667    0.0000 C   0  0  0  0  0  0  0  0  0  0  0  0
   -3.9458    1.0958    0.0000 C   0  0  0  0  0  0  0  0  0  0  0  0
   -3.9458    0.4333    0.0000 C   0  0  0  0  0  0  0  0  0  0  0  0
    0.1292    1.4208    0.0000 C   0  0  0  0  0  0  0  0  0  0  0  0
   -0.4625    2.4333    0.0000 C   0  0  0  0  0  0  0  0  0  0  0  0
    0.1292    2.0958    0.0000 C   0  0  0  0  0  0  0  0  0  0  0  0
  2  1  1  0  0  0  0
  3  1  1  0  0  0  0
  4  3  1  0  0  0  0
  5  2  1  0  0  0  0
  6  4  1  0  0  0  0
  7  3  1  0  0  0  0
  8  1  1  0  0  0  0
  9  2  2  0  0  0  0
 10  7  2  0  0  0  0
 11  7  1  0  0  0  0
 12  5  1  0  0  0  0
 13 14  1  0  0  0  0
 14 11  2  0  0  0  0
 15 10  1  0  0  0  0
 16  6  1  0  0  0  0
 17 13  1  0  0  0  0
 18  8  1  0  0  0  0
 19  8  2  0  0  0  0
 20 17  1  0  0  0  0
 21 12  2  0  0  0  0
 22 16  2  0  0  0  0
 23 18  2  0  0  0  0
 24 19  1  0  0  0  0
 25 24  2  0  0  0  0
  5  6  2  0  0  0  0
 25 23  1  0  0  0  0
 13 15  2  0  0  0  0
 21 22  1  0  0  0  0
M  END
> <#>
1793

> <PLATE>
LAT023

> <ROW>
A

> <COL>
6

> <COORD>
A06

> <LATID>
LAT023A06

> <Supplier>
Chembridge

> <Suplier_CAT#>
5569798

> <Name>
Novel

> <Sec_Name>
175_F07

> <Concentration_(mM)>
2.5

> <IC50_(µM)>
5

> <Yeast_Active?>
-

> <Pubchem_CID>
739791

$$$$
