
  -ISIS-  08130814242D

 16 17  0  0  0  0  0  0  0  0999 V2000
    8.0750    0.8458    0.0000 C   0  0  0  0  0  0  0  0  0  0  0  0
    8.1542    0.1000    0.0000 S   0  0  0  0  0  0  0  0  0  0  0  0
    8.8875   -0.0542    0.0000 C   0  0  0  0  0  0  0  0  0  0  0  0
    7.4250    1.2208    0.0000 C   0  0  0  0  0  0  0  0  0  0  0  0
    8.7542    1.1500    0.0000 C   0  0  0  0  0  0  0  0  0  0  0  0
    9.2625    0.5958    0.0000 C   0  0  0  0  0  0  0  0  0  0  0  0
    6.7750    0.8458    0.0000 N   0  0  0  0  0  0  0  0  0  0  0  0
    4.8292    1.2208    0.0000 N   0  0  0  0  0  0  0  0  0  0  0  0
    7.4250    1.9708    0.0000 O   0  0  0  0  0  0  0  0  0  0  0  0
    9.1917   -0.7417    0.0000 Br  0  0  0  0  0  0  0  0  0  0  0  0
    6.1250    1.2208    0.0000 C   0  0  0  0  0  0  0  0  0  0  0  0
    5.4750    0.8458    0.0000 C   0  0  0  0  0  0  0  0  0  0  0  0
    4.1792    0.8458    0.0000 C   0  0  0  0  0  0  0  0  0  0  0  0
    5.4750    0.0958    0.0000 C   0  0  0  0  0  0  0  0  0  0  0  0
    4.1792    0.0958    0.0000 C   0  0  0  0  0  0  0  0  0  0  0  0
    4.8292   -0.2792    0.0000 C   0  0  0  0  0  0  0  0  0  0  0  0
  2  1  1  0  0  0  0
  3  2  1  0  0  0  0
  4  1  1  0  0  0  0
  5  1  2  0  0  0  0
  6  5  1  0  0  0  0
  7  4  1  0  0  0  0
  8 12  2  0  0  0  0
  9  4  2  0  0  0  0
 10  3  1  0  0  0  0
 11  7  1  0  0  0  0
 12 11  1  0  0  0  0
 13  8  1  0  0  0  0
 14 12  1  0  0  0  0
 15 16  1  0  0  0  0
 16 14  2  0  0  0  0
  6  3  2  0  0  0  0
 13 15  2  0  0  0  0
M  END
> <#>
1527

> <PLATE>
LAT020

> <ROW>
G

> <COL>
2

> <COORD>
G02

> <LATID>
LAT020G02

> <Supplier>
Chembridge

> <Suplier_CAT#>
7948257

> <Name>
Novel

> <Concentration_(mM)>
2.5

> <IC50_(µM)>
>100

> <Yeast_Active?>
-

> <Pubchem_CID>
1247028

$$$$
