
  -ISIS-  08130814242D

 22 24  0  0  0  0  0  0  0  0999 V2000
    6.1542    2.1583    0.0000 C   0  0  0  0  0  0  0  0  0  0  0  0
    4.9000    2.9000    0.0000 C   0  0  0  0  0  0  0  0  0  0  0  0
    7.3667    2.8750    0.0000 C   0  0  0  0  0  0  0  0  0  0  0  0
    6.1417    0.7125    0.0000 C   0  0  0  0  0  0  0  0  0  0  0  0
    3.6542    2.1708    0.0000 C   0  0  0  0  0  0  0  0  0  0  0  0
    4.8875    0.0000    0.0000 O   0  0  0  0  0  0  0  0  0  0  0  0
    8.5917    2.1708    0.0000 C   0  0  0  0  0  0  0  0  0  0  0  0
    3.6625    0.7625    0.0000 C   0  0  0  0  0  0  0  0  0  0  0  0
    4.9000    4.0917    0.0000 O   0  0  0  0  0  0  0  0  0  0  0  0
    2.4292    2.8833    0.0000 C   0  0  0  0  0  0  0  0  0  0  0  0
    7.3667    4.0917    0.0000 O   0  0  0  0  0  0  0  0  0  0  0  0
    9.8042    2.8625    0.0000 C   0  0  0  0  0  0  0  0  0  0  0  0
    2.4292    0.0583    0.0000 C   0  0  0  0  0  0  0  0  0  0  0  0
    1.2167    2.1833    0.0000 C   0  0  0  0  0  0  0  0  0  0  0  0
    7.3542    0.0208    0.0000 C   0  0  0  0  0  0  0  0  0  0  0  0
    9.8000    4.2625    0.0000 Cl  0  0  0  0  0  0  0  0  0  0  0  0
    1.2167    0.7625    0.0000 C   0  0  0  0  0  0  0  0  0  0  0  0
    0.0000    2.8958    0.0000 Cl  0  0  0  0  0  0  0  0  0  0  0  0
    8.5875    0.7583    0.0000 C   0  0  0  0  0  0  0  0  0  0  0  0
   11.0167    2.1583    0.0000 C   0  0  0  0  0  0  0  0  0  0  0  0
    9.8000    0.0583    0.0000 C   0  0  0  0  0  0  0  0  0  0  0  0
   11.0167    0.7458    0.0000 C   0  0  0  0  0  0  0  0  0  0  0  0
  2  1  1  0  0  0  0
  3  1  1  0  0  0  0
  4  1  2  0  0  0  0
  5  2  1  0  0  0  0
  6  4  1  0  0  0  0
  7  3  1  0  0  0  0
  8  6  1  0  0  0  0
  9  2  2  0  0  0  0
 10  5  1  0  0  0  0
 11  3  2  0  0  0  0
 12  7  1  0  0  0  0
 13  8  1  0  0  0  0
 14 10  2  0  0  0  0
 15  4  1  0  0  0  0
 16 12  1  0  0  0  0
 17 13  2  0  0  0  0
 18 14  1  0  0  0  0
 19  7  2  0  0  0  0
 20 12  2  0  0  0  0
 21 19  1  0  0  0  0
 22 21  2  0  0  0  0
  5  8  2  0  0  0  0
 14 17  1  0  0  0  0
 20 22  1  0  0  0  0
M  END
> <#>
1899

> <PLATE>
LAT024

> <ROW>
C

> <COL>
9

> <COORD>
C09

> <LATID>
LAT024C09

> <Supplier>
Chembridge

> <Suplier_CAT#>
5959711

> <Name>
S001 B06

> <Concentration_(mM)>
2.5

> <IC50_(µM)>
>100

> <Yeast_Active?>
-

> <Pubchem_CID>
2878661

$$$$
