
  -ISIS-  08130814242D

 25 28  0  0  0  0  0  0  0  0999 V2000
    0.1500    0.8208    0.0000 C   0  0  0  0  0  0  0  0  0  0  0  0
   -0.3125    1.2708    0.0000 C   0  0  0  0  0  0  0  0  0  0  0  0
    0.7500    0.9708    0.0000 C   0  0  0  0  0  0  0  0  0  0  0  0
    1.0875    0.4333    0.0000 S   0  0  0  0  0  0  0  0  0  0  0  0
   -0.9125    1.0958    0.0000 N   0  0  3  0  0  0  0  0  0  0  0  0
   -2.7500    0.5208    0.0000 C   0  0  0  0  0  0  0  0  0  0  0  0
   -2.1333    0.7000    0.0000 N   0  0  3  0  0  0  0  0  0  0  0  0
    0.0542    0.1833    0.0000 C   0  0  0  0  0  0  0  0  0  0  0  0
   -0.1500    1.8708    0.0000 N   0  0  0  0  0  0  0  0  0  0  0  0
    0.9292    1.5708    0.0000 N   0  0  0  0  0  0  0  0  0  0  0  0
    0.6875   -0.0500    0.0000 C   0  0  0  0  0  0  0  0  0  0  0  0
    0.5042    2.0208    0.0000 C   0  0  0  0  0  0  0  0  0  0  0  0
   -1.0708    0.4625    0.0000 C   0  0  0  0  0  0  0  0  0  0  0  0
   -1.3708    1.5125    0.0000 C   0  0  0  0  0  0  0  0  0  0  0  0
   -1.9708    1.3333    0.0000 C   0  0  0  0  0  0  0  0  0  0  0  0
   -1.6708    0.2833    0.0000 C   0  0  0  0  0  0  0  0  0  0  0  0
   -2.8958   -0.1042    0.0000 O   0  0  0  0  0  0  0  0  0  0  0  0
   -3.2125    0.9458    0.0000 C   0  0  0  0  0  0  0  0  0  0  0  0
    0.8292   -0.6792    0.0000 C   0  0  0  0  0  0  0  0  0  0  0  0
   -3.0708    1.5458    0.0000 C   0  0  0  0  0  0  0  0  0  0  0  0
   -3.8125    0.7625    0.0000 C   0  0  0  0  0  0  0  0  0  0  0  0
    0.3500   -1.1000    0.0000 C   0  0  0  0  0  0  0  0  0  0  0  0
   -4.2708    1.1833    0.0000 C   0  0  0  0  0  0  0  0  0  0  0  0
   -3.5333    1.9958    0.0000 C   0  0  0  0  0  0  0  0  0  0  0  0
   -4.1333    1.7833    0.0000 C   0  0  0  0  0  0  0  0  0  0  0  0
  2  1  1  0  0  0  0
  3  1  2  0  0  0  0
  4  3  1  0  0  0  0
  5  2  1  0  0  0  0
  6  7  1  0  0  0  0
  7 15  1  0  0  0  0
  8  1  1  0  0  0  0
  9  2  2  0  0  0  0
 10  3  1  0  0  0  0
 11  8  2  0  0  0  0
 12 10  2  0  0  0  0
 13  5  1  0  0  0  0
 14  5  1  0  0  0  0
 15 14  1  0  0  0  0
 16 13  1  0  0  0  0
 17  6  2  0  0  0  0
 18  6  1  0  0  0  0
 19 11  1  0  0  0  0
 20 18  2  0  0  0  0
 21 18  1  0  0  0  0
 22 19  1  0  0  0  0
 23 21  2  0  0  0  0
 24 20  1  0  0  0  0
 25 23  1  0  0  0  0
  4 11  1  0  0  0  0
  9 12  1  0  0  0  0
 16  7  1  0  0  0  0
 25 24  2  0  0  0  0
M  END
> <#>
1854

> <PLATE>
LAT024

> <ROW>
F

> <COL>
3

> <COORD>
F03

> <LATID>
LAT024F03

> <Supplier>
Chembridge

> <Suplier_CAT#>
5728395

> <Name>
Novel

> <Sec_Name>
231_D07

> <Concentration_(mM)>
2.5

> <IC50_(µM)>
4

> <Yeast_Active?>
-

> <Pubchem_CID>
1149185

$$$$
