
  -ISIS-  08130814242D

 17 17  0  0  0  0  0  0  0  0999 V2000
    1.7400    0.0327    0.0000 N   0  0  0  0  0  0  0  0  0  0  0  0
    0.9672    0.4789    0.0000 C   0  0  0  0  0  0  0  0  0  0  0  0
    0.1945    0.0327    0.0000 C   0  0  0  0  0  0  0  0  0  0  0  0
   -0.5783    0.4789    0.0000 C   0  0  0  0  0  0  0  0  0  0  0  0
   -0.5783    1.3712    0.0000 C   0  0  0  0  0  0  0  0  0  0  0  0
   -1.3511    1.8174    0.0000 C   0  0  0  0  0  0  0  0  0  0  0  0
   -2.1239    1.3712    0.0000 N   0  0  0  0  0  0  0  0  0  0  0  0
   -2.8966    1.8174    0.0000 C   0  0  0  0  0  0  0  0  0  0  0  0
   -3.6694    1.3712    0.0000 C   0  0  0  0  0  0  0  0  0  0  0  0
   -4.4422    1.8174    0.0000 N   0  0  3  0  0  0  0  0  0  0  0  0
   -4.4422    2.7097    0.0000 C   0  0  0  0  0  0  0  0  0  0  0  0
   -5.2150    3.1558    0.0000 C   0  0  0  0  0  0  0  0  0  0  0  0
   -5.2150    1.3712    0.0000 C   0  0  0  0  0  0  0  0  0  0  0  0
   -5.2150    0.4789    0.0000 C   0  0  0  0  0  0  0  0  0  0  0  0
   -1.3511    2.7097    0.0000 O   0  0  0  0  0  0  0  0  0  0  0  0
    0.1945    1.8174    0.0000 C   0  0  0  0  0  0  0  0  0  0  0  0
    0.9672    1.3712    0.0000 C   0  0  0  0  0  0  0  0  0  0  0  0
  1  2  1  0  0  0  0
  2  3  1  0  0  0  0
  3  4  2  0  0  0  0
  4  5  1  0  0  0  0
  5  6  1  0  0  0  0
  6  7  1  0  0  0  0
  7  8  1  0  0  0  0
  8  9  1  0  0  0  0
  9 10  1  0  0  0  0
 10 11  1  0  0  0  0
 11 12  1  0  0  0  0
 10 13  1  0  0  0  0
 13 14  1  0  0  0  0
  6 15  2  0  0  0  0
  5 16  2  0  0  0  0
 16 17  1  0  0  0  0
  2 17  2  0  0  0  0
M  END
> <#>
470

> <PLATE>
LAT006

> <ROW>
F

> <COL>
10

> <COORD>
F10

> <LATID>
LAT006F10

> <Supplier>
Sigma

> <Suplier_CAT#>
P9391

> <Name>
Procainamide

> <Concentration_(mM)>
2.5

> <IC50_(µM)>
inactive

> <Yeast_Active?>
-

> <Pubchem_CID>
4913

$$$$
