
  -ISIS-  08130814242D

 23 24  0  0  0  0  0  0  0  0999 V2000
   -2.0708   -0.1792    0.0000 C   0  0  3  0  0  0  0  0  0  0  0  0
   -1.5958    0.6208    0.0000 C   0  0  3  0  0  0  0  0  0  0  0  0
   -1.6125   -0.9667    0.0000 C   0  0  0  0  0  0  0  0  0  0  0  0
   -0.6833   -0.9667    0.0000 C   0  0  0  0  0  0  0  0  0  0  0  0
   -0.2125   -1.7667    0.0000 C   0  0  0  0  0  0  0  0  0  0  0  0
   -0.6708   -2.5792    0.0000 C   0  0  0  0  0  0  0  0  0  0  0  0
    0.7167   -1.7542    0.0000 C   0  0  0  0  0  0  0  0  0  0  0  0
   -3.0000   -0.1792    0.0000 C   0  0  0  0  0  0  0  0  0  0  0  0
   -0.2208   -0.1667    0.0000 O   0  0  0  0  0  0  0  0  0  0  0  0
   -0.7833    0.1458    0.0000 F   0  0  0  0  0  0  0  0  0  0  0  0
   -1.1208    1.4125    0.0000 F   0  0  0  0  0  0  0  0  0  0  0  0
   -2.4000    1.1000    0.0000 F   0  0  0  0  0  0  0  0  0  0  0  0
   -0.2125   -3.3875    0.0000 C   0  0  0  0  0  0  0  0  0  0  0  0
   -2.4833   -1.0042    0.0000 O   0  0  0  0  0  0  0  0  0  0  0  0
    1.1875   -2.5667    0.0000 C   0  0  0  0  0  0  0  0  0  0  0  0
    0.7292   -3.3792    0.0000 C   0  0  0  0  0  0  0  0  0  0  0  0
   -1.5958   -2.5792    0.0000 O   0  0  0  0  0  0  0  0  0  0  0  0
   -3.4708   -0.9875    0.0000 C   0  0  0  0  0  0  0  0  0  0  0  0
   -3.4708    0.6333    0.0000 C   0  0  0  0  0  0  0  0  0  0  0  0
    2.1042   -2.5667    0.0000 C   0  0  0  0  0  0  0  0  0  0  0  0
   -4.4125   -0.9875    0.0000 C   0  0  0  0  0  0  0  0  0  0  0  0
   -4.4125    0.6333    0.0000 C   0  0  0  0  0  0  0  0  0  0  0  0
   -4.8833   -0.1792    0.0000 C   0  0  0  0  0  0  0  0  0  0  0  0
  2  1  1  0  0  0  0
  3  1  1  0  0  0  0
  4  3  1  0  0  0  0
  5  4  1  0  0  0  0
  6  5  1  0  0  0  0
  7  5  2  0  0  0  0
  8  1  1  0  0  0  0
  9  4  2  0  0  0  0
 10  2  1  0  0  0  0
 11  2  1  0  0  0  0
 12  2  1  0  0  0  0
 13  6  2  0  0  0  0
 14  1  1  0  0  0  0
 15  7  1  0  0  0  0
 16 15  2  0  0  0  0
 17  6  1  0  0  0  0
 18  8  1  0  0  0  0
 19  8  2  0  0  0  0
 20 15  1  0  0  0  0
 21 18  2  0  0  0  0
 22 19  1  0  0  0  0
 23 22  2  0  0  0  0
 21 23  1  0  0  0  0
 13 16  1  0  0  0  0
M  END
> <#>
1167

> <PLATE>
LAT015

> <ROW>
G

> <COL>
7

> <COORD>
G07

> <LATID>
LAT015G07

> <Supplier>
Chembridge

> <Suplier_CAT#>
5527461

> <Name>
Novel

> <Sec_Name>
150_G05

> <Concentration_(mM)>
2.5

> <IC50_(µM)>
>100

> <Yeast_Active?>
-

> <Pubchem_CID>
743597

$$$$
