
  -ISIS-  08130814242D

 19 20  0  0  0  0  0  0  0  0999 V2000
   11.5042  -15.6792    0.0000 N   0  0  0  0  0  0  0  0  0  0  0  0
   12.0000  -15.3667    0.0000 C   0  0  0  0  0  0  0  0  0  0  0  0
   11.8542  -14.8042    0.0000 N   0  0  0  0  0  0  0  0  0  0  0  0
   11.2667  -14.7625    0.0000 N   0  0  0  0  0  0  0  0  0  0  0  0
   11.0542  -15.3042    0.0000 C   0  0  0  0  0  0  0  0  0  0  0  0
   14.0125  -15.0792    0.0000 C   0  0  0  0  0  0  0  0  0  0  0  0
   14.5542  -15.3042    0.0000 C   0  0  0  0  0  0  0  0  0  0  0  0
   15.0167  -14.9417    0.0000 C   0  0  0  0  0  0  0  0  0  0  0  0
   13.5500  -15.4417    0.0000 C   0  0  0  0  0  0  0  0  0  0  0  0
   12.5417  -15.5917    0.0000 S   0  0  0  0  0  0  0  0  0  0  0  0
   14.9375  -14.3625    0.0000 C   0  0  0  0  0  0  0  0  0  0  0  0
   13.0042  -15.2292    0.0000 C   0  0  0  0  0  0  0  0  0  0  0  0
   13.9292  -14.5042    0.0000 C   0  0  0  0  0  0  0  0  0  0  0  0
   13.6292  -16.0292    0.0000 O   0  0  0  0  0  0  0  0  0  0  0  0
   14.3917  -14.1417    0.0000 C   0  0  0  0  0  0  0  0  0  0  0  0
   15.5667  -15.1625    0.0000 O   0  0  0  0  0  0  0  0  0  0  0  0
   15.4000  -13.9917    0.0000 O   0  0  0  0  0  0  0  0  0  0  0  0
   10.4792  -15.4500    0.0000 C   0  0  0  0  0  0  0  0  0  0  0  0
   10.0750  -15.0292    0.0000 C   0  0  0  0  0  0  0  0  0  0  0  0
  2  1  1  0  0  0  0
  3  2  2  0  0  0  0
  4  5  2  0  0  0  0
  5  1  1  0  0  0  0
  6  9  1  0  0  0  0
  7  6  2  0  0  0  0
  8  7  1  0  0  0  0
  9 12  1  0  0  0  0
 10  2  1  0  0  0  0
 11 15  1  0  0  0  0
 12 10  1  0  0  0  0
 13  6  1  0  0  0  0
 14  9  2  0  0  0  0
 15 13  2  0  0  0  0
 16  8  1  0  0  0  0
 17 11  1  0  0  0  0
 18  5  1  0  0  0  0
 19 18  1  0  0  0  0
  3  4  1  0  0  0  0
  8 11  2  0  0  0  0
M  END
> <#>
1263

> <PLATE>
LAT016

> <ROW>
G

> <COL>
9

> <COORD>
G09

> <LATID>
LAT016G09

> <Supplier>
Chembridge

> <Suplier_CAT#>
6607811

> <Name>
Novel

> <Concentration_(mM)>
2.5

> <IC50_(µM)>
inactive

> <Yeast_Active?>
-

> <Pubchem_CID>
NULL

$$$$
