
  -ISIS-  08130814242D

 24 25  0  0  0  0  0  0  0  0999 V2000
   -2.0708    1.3000    0.0000 C   0  0  0  0  0  0  0  0  0  0  0  0
   -1.5958    2.1000    0.0000 C   0  0  3  0  0  0  0  0  0  0  0  0
   -1.6125    0.5125    0.0000 C   0  0  0  0  0  0  0  0  0  0  0  0
   -0.2125   -0.2875    0.0000 C   0  0  0  0  0  0  0  0  0  0  0  0
   -0.6833    0.5125    0.0000 C   0  0  0  0  0  0  0  0  0  0  0  0
    0.7167   -0.2792    0.0000 C   0  0  0  0  0  0  0  0  0  0  0  0
   -3.0000    1.3000    0.0000 C   0  0  0  0  0  0  0  0  0  0  0  0
   -1.1208    2.8958    0.0000 F   0  0  0  0  0  0  0  0  0  0  0  0
   -2.4000    2.5833    0.0000 F   0  0  0  0  0  0  0  0  0  0  0  0
   -0.7833    1.6208    0.0000 F   0  0  0  0  0  0  0  0  0  0  0  0
   -0.2208    1.3125    0.0000 O   0  0  0  0  0  0  0  0  0  0  0  0
    1.1667    0.5208    0.0000 C   0  0  0  0  0  0  0  0  0  0  0  0
    2.0875    2.1458    0.0000 C   0  0  0  0  0  0  0  0  0  0  0  0
    0.7000    1.3333    0.0000 C   0  0  0  0  0  0  0  0  0  0  0  0
    2.1000    0.5208    0.0000 C   0  0  0  0  0  0  0  0  0  0  0  0
    1.1542    2.1458    0.0000 C   0  0  0  0  0  0  0  0  0  0  0  0
    2.5542    1.3333    0.0000 C   0  0  0  0  0  0  0  0  0  0  0  0
    2.5375    2.9458    0.0000 O   0  0  0  0  0  0  0  0  0  0  0  0
   -3.4708    2.1125    0.0000 C   0  0  0  0  0  0  0  0  0  0  0  0
   -3.4708    0.4958    0.0000 C   0  0  0  0  0  0  0  0  0  0  0  0
    3.4500    2.9458    0.0000 C   0  0  0  0  0  0  0  0  0  0  0  0
   -4.4125    2.1125    0.0000 C   0  0  0  0  0  0  0  0  0  0  0  0
   -4.4125    0.4958    0.0000 C   0  0  0  0  0  0  0  0  0  0  0  0
   -4.8833    1.3000    0.0000 C   0  0  0  0  0  0  0  0  0  0  0  0
  2  1  1  0  0  0  0
  3  1  2  0  0  0  0
  4  5  1  0  0  0  0
  5  3  1  0  0  0  0
  6  4  2  0  0  0  0
  7  1  1  0  0  0  0
  8  2  1  0  0  0  0
  9  2  1  0  0  0  0
 10  2  1  0  0  0  0
 11  5  2  0  0  0  0
 12  6  1  0  0  0  0
 13 17  2  0  0  0  0
 14 12  1  0  0  0  0
 15 12  2  0  0  0  0
 16 14  2  0  0  0  0
 17 15  1  0  0  0  0
 18 13  1  0  0  0  0
 19  7  2  0  0  0  0
 20  7  1  0  0  0  0
 21 18  1  0  0  0  0
 22 19  1  0  0  0  0
 23 20  2  0  0  0  0
 24 23  1  0  0  0  0
 22 24  2  0  0  0  0
 16 13  1  0  0  0  0
M  END
> <#>
1990

> <PLATE>
LAT025

> <ROW>
F

> <COL>
10

> <COORD>
F10

> <LATID>
LAT025F10

> <Supplier>
Chembridge

> <Suplier_CAT#>
5522742

> <Sec_Name>
145_B05

> <Concentration_(mM)>
2.5

> <IC50_(µM)>
>100

> <Yeast_Active?>
-

> <Pubchem_CID>
870837

$$$$
