
  -ISIS-  08130814242D

 20 21  0  0  0  0  0  0  0  0999 V2000
   -0.1708   -1.8292    0.0000 S   0  0  3  0  0  0  0  0  0  0  0  0
   -1.0958   -1.3042    0.0000 C   0  0  0  0  0  0  0  0  0  0  0  0
   -1.0958   -0.2667    0.0000 C   0  0  0  0  0  0  0  0  0  0  0  0
   -0.1958    0.2500    0.0000 N   0  3  0  0  0  0  0  0  0  0  0  0
    0.7500   -2.3500    0.0000 N   0  0  0  0  0  0  0  0  0  0  0  0
    0.3500   -0.9042    0.0000 O   0  0  0  0  0  0  0  0  0  0  0  0
   -0.6958   -2.7500    0.0000 O   0  0  0  0  0  0  0  0  0  0  0  0
    0.7875   -0.2000    0.0000 O   0  5  0  0  0  0  0  0  0  0  0  0
   -0.1333    1.3000    0.0000 O   0  0  0  0  0  0  0  0  0  0  0  0
    1.6667   -1.8042    0.0000 C   0  0  0  0  0  0  0  0  0  0  0  0
    3.4792   -0.7542    0.0000 C   0  0  0  0  0  0  0  0  0  0  0  0
   -2.0000   -1.8375    0.0000 C   0  0  0  0  0  0  0  0  0  0  0  0
   -1.9958    0.2500    0.0000 C   0  0  0  0  0  0  0  0  0  0  0  0
    4.3875   -0.2500    0.0000 Br  0  0  0  0  0  0  0  0  0  0  0  0
    2.5667   -2.3292    0.0000 C   0  0  0  0  0  0  0  0  0  0  0  0
    1.6542   -0.7542    0.0000 C   0  0  0  0  0  0  0  0  0  0  0  0
    2.5542   -0.2375    0.0000 C   0  0  0  0  0  0  0  0  0  0  0  0
    3.4792   -1.8000    0.0000 C   0  0  0  0  0  0  0  0  0  0  0  0
   -2.9125   -0.2667    0.0000 C   0  0  0  0  0  0  0  0  0  0  0  0
   -2.9000   -1.3167    0.0000 C   0  0  0  0  0  0  0  0  0  0  0  0
  2  1  1  0  0  0  0
  3  2  2  0  0  0  0
  4  3  1  0  0  0  0
  5  1  1  0  0  0  0
  6  1  2  0  0  0  0
  7  1  2  0  0  0  0
  8  4  1  0  0  0  0
  9  4  2  0  0  0  0
 10  5  1  0  0  0  0
 11 17  1  0  0  0  0
 12  2  1  0  0  0  0
 13  3  1  0  0  0  0
 14 11  1  0  0  0  0
 15 10  2  0  0  0  0
 16 10  1  0  0  0  0
 17 16  2  0  0  0  0
 18 15  1  0  0  0  0
 19 20  1  0  0  0  0
 20 12  2  0  0  0  0
 18 11  2  0  0  0  0
 13 19  2  0  0  0  0
M  CHG  2   4   1   8  -1
M  END
> <#>
1053

> <PLATE>
LAT014

> <ROW>
E

> <COL>
3

> <COORD>
E03

> <LATID>
LAT014E03

> <Supplier>
Chembridge

> <Suplier_CAT#>
5109768

> <Name>
Novel

> <Concentration_(mM)>
2.5

> <IC50_(µM)>
26

> <Yeast_Active?>
-

> <Pubchem_CID>
1376678

$$$$
