
  -ISIS-  08130814242D

 21 22  0  0  0  0  0  0  0  0999 V2000
   10.3417  -10.4667    0.0000 S   0  0  3  0  0  0  0  0  0  0  0  0
    8.9292  -10.4667    0.0000 C   0  0  0  0  0  0  0  0  0  0  0  0
   11.7667  -10.4750    0.0000 O   0  0  0  0  0  0  0  0  0  0  0  0
   13.1792  -10.4750    0.0000 C   0  0  0  0  0  0  0  0  0  0  0  0
   13.8792  -11.6875    0.0000 C   0  0  0  0  0  0  0  0  0  0  0  0
    8.2250  -11.6750    0.0000 C   0  0  0  0  0  0  0  0  0  0  0  0
   10.3292  -11.8875    0.0000 O   0  0  0  0  0  0  0  0  0  0  0  0
   10.3292   -9.0417    0.0000 O   0  0  0  0  0  0  0  0  0  0  0  0
    8.2250   -9.2292    0.0000 C   0  0  0  0  0  0  0  0  0  0  0  0
   13.1792  -12.9042    0.0000 C   0  0  0  0  0  0  0  0  0  0  0  0
   11.7667  -12.9042    0.0000 O   0  0  0  0  0  0  0  0  0  0  0  0
    6.8292   -9.2292    0.0000 C   0  0  0  0  0  0  0  0  0  0  0  0
    6.8125  -11.6750    0.0000 C   0  0  0  0  0  0  0  0  0  0  0  0
    8.9292   -8.0042    0.0000 Cl  0  0  0  0  0  0  0  0  0  0  0  0
    6.1167  -10.4542    0.0000 C   0  0  0  0  0  0  0  0  0  0  0  0
    6.1000  -12.8917    0.0000 Cl  0  0  0  0  0  0  0  0  0  0  0  0
   15.2917  -11.6875    0.0000 C   0  0  0  0  0  0  0  0  0  0  0  0
   13.8792   -9.2542    0.0000 C   0  0  0  0  0  0  0  0  0  0  0  0
   13.8875  -14.1375    0.0000 C   0  0  0  0  0  0  0  0  0  0  0  0
   16.0000  -10.4667    0.0000 C   0  0  0  0  0  0  0  0  0  0  0  0
   15.2917   -9.2417    0.0000 C   0  0  0  0  0  0  0  0  0  0  0  0
  2  1  1  0  0  0  0
  3  1  1  0  0  0  0
  4  3  1  0  0  0  0
  5  4  1  0  0  0  0
  6  2  2  0  0  0  0
  7  1  2  0  0  0  0
  8  1  2  0  0  0  0
  9  2  1  0  0  0  0
 10  5  1  0  0  0  0
 11 10  2  0  0  0  0
 12  9  2  0  0  0  0
 13  6  1  0  0  0  0
 14  9  1  0  0  0  0
 15 12  1  0  0  0  0
 16 13  1  0  0  0  0
 17  5  2  0  0  0  0
 18  4  2  0  0  0  0
 19 10  1  0  0  0  0
 20 21  2  0  0  0  0
 21 18  1  0  0  0  0
 15 13  2  0  0  0  0
 17 20  1  0  0  0  0
M  END
> <#>
1339

> <PLATE>
LAT017

> <ROW>
C

> <COL>
9

> <COORD>
C09

> <LATID>
LAT017C09

> <Supplier>
Chembridge

> <Suplier_CAT#>
7357049

> <Name>
Novel

> <Concentration_(mM)>
2.5

> <IC50_(µM)>
67

> <Yeast_Active?>
-

> <Pubchem_CID>
1739230

$$$$
