
  -ISIS-  08130814242D

 34 37  0  0  0  0  0  0  0  0999 V2000
   11.1625    2.9875    0.0000 N   0  0  3  0  0  0  0  0  0  0  0  0
   11.4125    4.1375    0.0000 C   0  0  0  0  0  0  0  0  0  0  0  0
   10.3500    4.7750    0.0000 N   0  0  0  0  0  0  0  0  0  0  0  0
    9.9625    2.7750    0.0000 C   0  0  0  0  0  0  0  0  0  0  0  0
    9.4375    3.9250    0.0000 N   0  0  0  0  0  0  0  0  0  0  0  0
    6.1375   -2.6375    0.0000 C   0  0  0  0  0  0  0  0  0  0  0  0
    8.2500   -2.6250    0.0000 C   0  0  0  0  0  0  0  0  0  0  0  0
    5.0625   -2.0375    0.0000 C   0  0  0  0  0  0  0  0  0  0  0  0
    9.4000    1.6875    0.0000 S   0  0  0  0  0  0  0  0  0  0  0  0
    7.1750   -2.0250    0.0000 C   0  0  0  0  0  0  0  0  0  0  0  0
   12.5375    4.6042    0.0000 C   0  0  0  0  0  0  0  0  0  0  0  0
    8.3000   -0.1250    0.0000 C   0  0  0  0  0  0  0  0  0  0  0  0
    8.2625   -3.8625    0.0000 C   0  0  0  0  0  0  0  0  0  0  0  0
    9.3375   -0.7750    0.0000 N   0  0  0  0  0  0  0  0  0  0  0  0
    9.3125   -2.0000    0.0000 C   0  0  0  0  0  0  0  0  0  0  0  0
    6.1375   -3.8750    0.0000 C   0  0  0  0  0  0  0  0  0  0  0  0
    5.0625   -0.8000    0.0000 O   0  0  0  0  0  0  0  0  0  0  0  0
    4.0000   -2.6500    0.0000 C   0  0  0  0  0  0  0  0  0  0  0  0
    7.2125   -0.7125    0.0000 O   0  0  0  0  0  0  0  0  0  0  0  0
    7.1875   -4.4750    0.0000 C   0  0  0  0  0  0  0  0  0  0  0  0
    8.3250    1.1000    0.0000 C   0  0  0  0  0  0  0  0  0  0  0  0
   13.5250    3.8625    0.0000 C   0  0  0  0  0  0  0  0  0  0  0  0
   12.7375    5.8417    0.0000 C   0  0  0  0  0  0  0  0  0  0  0  0
   12.0000    2.0875    0.0000 C   0  0  0  0  0  0  0  0  0  0  0  0
   14.6500    4.2750    0.0000 C   0  0  0  0  0  0  0  0  0  0  0  0
   13.9125    6.2792    0.0000 C   0  0  0  0  0  0  0  0  0  0  0  0
   14.8375    5.5250    0.0000 C   0  0  0  0  0  0  0  0  0  0  0  0
    9.3250   -4.4750    0.0000 O   0  0  0  0  0  0  0  0  0  0  0  0
    4.0000   -3.8875    0.0000 C   0  0  0  0  0  0  0  0  0  0  0  0
    2.9375   -2.0375    0.0000 C   0  0  0  0  0  0  0  0  0  0  0  0
   16.0000    5.9667    0.0000 C   0  0  0  0  0  0  0  0  0  0  0  0
    1.8750   -2.6500    0.0000 C   0  0  0  0  0  0  0  0  0  0  0  0
    2.9375   -4.5000    0.0000 C   0  0  0  0  0  0  0  0  0  0  0  0
    1.8750   -3.8875    0.0000 C   0  0  0  0  0  0  0  0  0  0  0  0
  2  1  1  0  0  0  0
  3  2  2  0  0  0  0
  4  1  1  0  0  0  0
  5  4  2  0  0  0  0
  6 10  1  0  0  0  0
  7 15  1  0  0  0  0
  8  6  1  0  0  0  0
  9  4  1  0  0  0  0
 10  7  2  0  0  0  0
 11  2  1  0  0  0  0
 12 21  1  0  0  0  0
 13  7  1  0  0  0  0
 14 12  1  0  0  0  0
 15 14  1  0  0  0  0
 16 20  1  0  0  0  0
 17  8  2  0  0  0  0
 18  8  1  0  0  0  0
 19 12  2  0  0  0  0
 20 13  2  0  0  0  0
 21  9  1  0  0  0  0
 22 11  2  0  0  0  0
 23 11  1  0  0  0  0
 24  1  1  0  0  0  0
 25 22  1  0  0  0  0
 26 23  2  0  0  0  0
 27 26  1  0  0  0  0
 28 13  1  0  0  0  0
 29 18  1  0  0  0  0
 30 18  2  0  0  0  0
 31 27  1  0  0  0  0
 32 30  1  0  0  0  0
 33 29  2  0  0  0  0
 34 32  2  0  0  0  0
  5  3  1  0  0  0  0
 27 25  2  0  0  0  0
 16  6  2  0  0  0  0
 33 34  1  0  0  0  0
M  END
> <#>
1378

> <PLATE>
LAT018

> <ROW>
B

> <COL>
4

> <COORD>
B04

> <LATID>
LAT018B04

> <Supplier>
Chembridge

> <Suplier_CAT#>
7635337

> <Name>
Novel

> <Concentration_(mM)>
2.5

> <IC50_(µM)>
inactive

> <Yeast_Active?>
-

> <Pubchem_CID>
1313942

$$$$
