
  -ISIS-  08130814242D

 23 26  0  0  0  0  0  0  0  0999 V2000
   -0.0083   -1.2667    0.0000 C   0  0  0  0  0  0  0  0  0  0  0  0
   -0.7208   -1.6792    0.0000 S   0  0  0  0  0  0  0  0  0  0  0  0
    0.7125   -1.6792    0.0000 C   0  0  0  0  0  0  0  0  0  0  0  0
   -0.0083   -0.4417    0.0000 C   0  0  0  0  0  0  0  0  0  0  0  0
   -1.4333   -1.2667    0.0000 C   0  0  0  0  0  0  0  0  0  0  0  0
    1.4292   -1.2667    0.0000 N   0  0  3  0  0  0  0  0  0  0  0  0
   -1.4333   -0.4417    0.0000 C   0  0  0  0  0  0  0  0  0  0  0  0
    2.8625   -0.4542    0.0000 N   0  0  3  0  0  0  0  0  0  0  0  0
    2.1417   -1.6875    0.0000 C   0  0  0  0  0  0  0  0  0  0  0  0
    1.4292   -0.4417    0.0000 C   0  0  0  0  0  0  0  0  0  0  0  0
    0.7042   -2.5042    0.0000 O   0  0  0  0  0  0  0  0  0  0  0  0
    2.1500   -0.0292    0.0000 C   0  0  0  0  0  0  0  0  0  0  0  0
    2.8542   -1.2792    0.0000 C   0  0  0  0  0  0  0  0  0  0  0  0
    3.5792   -0.0417    0.0000 C   0  0  0  0  0  0  0  0  0  0  0  0
   -2.1458   -1.6792    0.0000 C   0  0  0  0  0  0  0  0  0  0  0  0
   -2.1458   -0.0292    0.0000 C   0  0  0  0  0  0  0  0  0  0  0  0
    4.2875   -0.4667    0.0000 C   0  0  0  0  0  0  0  0  0  0  0  0
    3.5792    0.7750    0.0000 C   0  0  0  0  0  0  0  0  0  0  0  0
   -2.8583   -0.4417    0.0000 C   0  0  0  0  0  0  0  0  0  0  0  0
   -2.8583   -1.2667    0.0000 C   0  0  0  0  0  0  0  0  0  0  0  0
    5.0042   -0.0667    0.0000 C   0  0  0  0  0  0  0  0  0  0  0  0
    4.3042    1.1833    0.0000 C   0  0  0  0  0  0  0  0  0  0  0  0
    5.0167    0.7583    0.0000 C   0  0  0  0  0  0  0  0  0  0  0  0
  2  1  1  0  0  0  0
  3  1  1  0  0  0  0
  4  1  2  0  0  0  0
  5  2  1  0  0  0  0
  6  3  1  0  0  0  0
  7  4  1  0  0  0  0
  8 12  1  0  0  0  0
  9  6  1  0  0  0  0
 10  6  1  0  0  0  0
 11  3  2  0  0  0  0
 12 10  1  0  0  0  0
 13  9  1  0  0  0  0
 14  8  1  0  0  0  0
 15  5  1  0  0  0  0
 16  7  1  0  0  0  0
 17 14  2  0  0  0  0
 18 14  1  0  0  0  0
 19 16  1  0  0  0  0
 20 15  1  0  0  0  0
 21 17  1  0  0  0  0
 22 18  2  0  0  0  0
 23 22  1  0  0  0  0
  5  7  2  0  0  0  0
  8 13  1  0  0  0  0
 20 19  1  0  0  0  0
 23 21  2  0  0  0  0
M  END
> <#>
969

> <PLATE>
LAT013

> <ROW>
A

> <COL>
3

> <COORD>
A03

> <LATID>
LAT013A03

> <Supplier>
Chembridge

> <Suplier_CAT#>
5748616

> <Name>
Novel

> <Sec_Name>
237_D11

> <Concentration_(mM)>
2.5

> <IC50_(µM)>
29

> <Yeast_Active?>
-

> <Pubchem_CID>
685850

$$$$
