
  -ISIS-  08130814242D

 29 30  0  0  0  0  0  0  0  0999 V2000
   -1.7514   -0.2250    0.0000 C   0  0  0  0  0  0  0  0  0  0  0  0
   -1.7526   -1.0523    0.0000 C   0  0  0  0  0  0  0  0  0  0  0  0
   -1.0378   -1.4652    0.0000 C   0  0  0  0  0  0  0  0  0  0  0  0
   -0.3213   -1.0519    0.0000 C   0  0  0  0  0  0  0  0  0  0  0  0
   -0.3242   -0.2213    0.0000 C   0  0  0  0  0  0  0  0  0  0  0  0
   -1.0396    0.1878    0.0000 C   0  0  0  0  0  0  0  0  0  0  0  0
   -2.4660    0.1874    0.0000 N   0  0  0  0  0  0  0  0  0  0  0  0
   -2.4662    1.0124    0.0000 O   0  0  0  0  0  0  0  0  0  0  0  0
   -3.1804   -0.2253    0.0000 O   0  0  0  0  0  0  0  0  0  0  0  0
   -1.0380   -2.2902    0.0000 C   0  0  3  0  0  0  0  0  0  0  0  0
   -1.7515   -2.7003    0.0000 C   0  0  0  0  0  0  0  0  0  0  0  0
   -1.7537   -3.5217    0.0000 C   0  0  0  0  0  0  0  0  0  0  0  0
   -1.0412   -3.9382    0.0000 N   0  0  3  0  0  0  0  0  0  0  0  0
   -0.3248   -3.5271    0.0000 C   0  0  0  0  0  0  0  0  0  0  0  0
   -0.3209   -2.6995    0.0000 C   0  0  0  0  0  0  0  0  0  0  0  0
   -2.4651   -2.2861    0.0000 C   0  0  0  0  0  0  0  0  0  0  0  0
   -2.4631   -1.4611    0.0000 O   0  0  0  0  0  0  0  0  0  0  0  0
   -3.1805   -2.6969    0.0000 O   0  0  0  0  0  0  0  0  0  0  0  0
   -3.8940   -2.2828    0.0000 C   0  0  0  0  0  0  0  0  0  0  0  0
    0.3935   -2.2869    0.0000 C   0  0  0  0  0  0  0  0  0  0  0  0
    1.1080   -2.6993    0.0000 O   0  0  0  0  0  0  0  0  0  0  0  0
    0.3934   -1.4619    0.0000 O   0  0  0  0  0  0  0  0  0  0  0  0
    1.1081   -3.5243    0.0000 C   0  0  0  0  0  0  0  0  0  0  0  0
    1.8227   -3.9367    0.0000 C   0  0  0  0  0  0  0  0  0  0  0  0
   -2.4698   -3.9313    0.0000 C   0  0  0  0  0  0  0  0  0  0  0  0
    0.3882   -3.9422    0.0000 C   0  0  0  0  0  0  0  0  0  0  0  0
   -1.0445   -4.7632    0.0000 C   0  0  0  0  0  0  0  0  0  0  0  0
   -1.7606   -5.1728    0.0000 C   0  0  0  0  0  0  0  0  0  0  0  0
   -1.7639   -5.9978    0.0000 C   0  0  0  0  0  0  0  0  0  0  0  0
 12 13  1  0  0  0  0
 13 14  1  0  0  0  0
 14 15  2  0  0  0  0
  3  4  2  0  0  0  0
 11 16  1  0  0  0  0
  7  8  2  0  0  0  0
 16 17  2  0  0  0  0
 16 18  1  0  0  0  0
  7  9  2  0  0  0  0
 18 19  1  0  0  0  0
  4  5  1  0  0  0  0
 15 20  1  0  0  0  0
  3 10  1  0  0  0  0
 20 21  1  0  0  0  0
 10 11  1  0  0  0  0
 20 22  2  0  0  0  0
  2  3  1  0  0  0  0
 21 23  1  0  0  0  0
  5  6  2  0  0  0  0
 23 24  1  0  0  0  0
  6  1  1  0  0  0  0
 12 25  1  0  0  0  0
  1  2  2  0  0  0  0
 14 26  1  0  0  0  0
  1  7  1  0  0  0  0
 13 27  1  0  0  0  0
 10 15  1  0  0  0  0
 27 28  1  0  0  0  0
 11 12  2  0  0  0  0
 28 29  3  0  0  0  0
M  END
> <#>
248

> <PLATE>
LAT004

> <ROW>
H

> <COL>
2

> <COORD>
H02

> <LATID>
LAT004H02

> <Supplier>
Sigma

> <Suplier_CAT#>
M 1692

> <Name>
MRS 1845

> <Concentration_(mM)>
2.5

> <IC50_(µM)>
66

> <Yeast_Active?>
-

> <Pubchem_CID>
6603918

> <Description>
Store-operated calcium (SOC) channel inhibitor.

$$$$
