
  -ISIS-  08130814242D

 24 27  0  0  0  0  0  0  0  0999 V2000
   -0.5708   -0.0167    0.0000 C   0  0  0  0  0  0  0  0  0  0  0  0
   -1.2708    0.3833    0.0000 C   0  0  0  0  0  0  0  0  0  0  0  0
   -1.9708   -0.0167    0.0000 C   0  0  0  0  0  0  0  0  0  0  0  0
    0.1500    0.3833    0.0000 C   0  0  0  0  0  0  0  0  0  0  0  0
    0.8292   -0.0167    0.0000 C   0  0  0  0  0  0  0  0  0  0  0  0
    3.6042   -0.0167    0.0000 C   0  0  0  0  0  0  0  0  0  0  0  0
   -0.5708   -0.8375    0.0000 C   0  0  0  0  0  0  0  0  0  0  0  0
    1.5292    0.3833    0.0000 C   0  0  0  0  0  0  0  0  0  0  0  0
    3.6042   -0.8167    0.0000 C   0  0  0  0  0  0  0  0  0  0  0  0
    4.3667    0.2208    0.0000 O   0  0  0  0  0  0  0  0  0  0  0  0
    4.3667   -1.0542    0.0000 O   0  0  0  0  0  0  0  0  0  0  0  0
    4.8292   -0.4375    0.0000 C   0  0  0  0  0  0  0  0  0  0  0  0
    2.9042    0.3833    0.0000 C   0  0  0  0  0  0  0  0  0  0  0  0
   -1.9708   -0.8375    0.0000 C   0  0  0  0  0  0  0  0  0  0  0  0
   -1.2708   -1.2375    0.0000 C   0  0  0  0  0  0  0  0  0  0  0  0
    0.1500    1.1833    0.0000 O   0  0  0  0  0  0  0  0  0  0  0  0
    2.2292   -0.0167    0.0000 C   0  0  0  0  0  0  0  0  0  0  0  0
    2.9042   -1.2167    0.0000 C   0  0  0  0  0  0  0  0  0  0  0  0
   -1.2708    1.1833    0.0000 O   0  0  0  0  0  0  0  0  0  0  0  0
    2.2292   -0.8167    0.0000 C   0  0  0  0  0  0  0  0  0  0  0  0
   -2.6500    0.3833    0.0000 C   0  0  0  0  0  0  0  0  0  0  0  0
   -2.6500   -1.2375    0.0000 C   0  0  0  0  0  0  0  0  0  0  0  0
   -3.3500   -0.0167    0.0000 C   0  0  0  0  0  0  0  0  0  0  0  0
   -3.3500   -0.8375    0.0000 C   0  0  0  0  0  0  0  0  0  0  0  0
  2  1  1  0  0  0  0
  3  2  2  0  0  0  0
  4  1  1  0  0  0  0
  5  4  1  0  0  0  0
  6 13  2  0  0  0  0
  7  1  2  0  0  0  0
  8  5  2  0  0  0  0
  9 18  2  0  0  0  0
 10  6  1  0  0  0  0
 11  9  1  0  0  0  0
 12 10  1  0  0  0  0
 13 17  1  0  0  0  0
 14 15  2  0  0  0  0
 15  7  1  0  0  0  0
 16  4  2  0  0  0  0
 17  8  1  0  0  0  0
 18 20  1  0  0  0  0
 19  2  1  0  0  0  0
 20 17  2  0  0  0  0
 21  3  1  0  0  0  0
 22 14  1  0  0  0  0
 23 21  2  0  0  0  0
 24 22  2  0  0  0  0
 14  3  1  0  0  0  0
 24 23  1  0  0  0  0
  9  6  1  0  0  0  0
 11 12  1  0  0  0  0
M  END
> <#>
1234

> <PLATE>
LAT016

> <ROW>
B

> <COL>
6

> <COORD>
B06

> <LATID>
LAT016B06

> <Supplier>
Chembridge

> <Suplier_CAT#>
6162611

> <Name>
Novel

> <Concentration_(mM)>
2.5

> <IC50_(µM)>
inactive

> <Yeast_Active?>
-

> <Pubchem_CID>
2888716

$$$$
