
  -ISIS-  08130814242D

 15 16  0  0  0  0  0  0  0  0999 V2000
   -0.4500    0.5958    0.0000 C   0  0  0  0  0  0  0  0  0  0  0  0
   -0.9458    0.3125    0.0000 C   0  0  3  0  0  0  0  0  0  0  0  0
    0.5667    0.5958    0.0000 N   0  0  0  0  0  0  0  0  0  0  0  0
    0.0667    0.3125    0.0000 N   0  0  0  0  0  0  0  0  0  0  0  0
   -1.2125   -0.2000    0.0000 C   0  0  0  0  0  0  0  0  0  0  0  0
   -1.4833    0.3500    0.0000 C   0  0  0  0  0  0  0  0  0  0  0  0
    1.0500    0.3125    0.0000 C   0  0  0  0  0  0  0  0  0  0  0  0
    1.5500    0.6125    0.0000 C   0  0  0  0  0  0  0  0  0  0  0  0
   -0.4500    1.1708    0.0000 O   0  0  0  0  0  0  0  0  0  0  0  0
    2.5500    0.6125    0.0000 N   0  0  0  0  0  0  0  0  0  0  0  0
    2.0500    0.3333    0.0000 C   0  0  0  0  0  0  0  0  0  0  0  0
    1.5500    1.1708    0.0000 C   0  0  0  0  0  0  0  0  0  0  0  0
    2.5500    1.1708    0.0000 C   0  0  0  0  0  0  0  0  0  0  0  0
    1.0500   -0.2667    0.0000 C   0  0  0  0  0  0  0  0  0  0  0  0
    2.0500    1.4500    0.0000 C   0  0  0  0  0  0  0  0  0  0  0  0
  2  1  1  0  0  0  0
  3  4  1  0  0  0  0
  4  1  1  0  0  0  0
  5  2  1  0  0  0  0
  6  2  1  0  0  0  0
  7  3  2  0  0  0  0
  8  7  1  0  0  0  0
  9  1  2  0  0  0  0
 10 11  2  0  0  0  0
 11  8  1  0  0  0  0
 12  8  2  0  0  0  0
 13 15  2  0  0  0  0
 14  7  1  0  0  0  0
 15 12  1  0  0  0  0
  5  6  1  0  0  0  0
 10 13  1  0  0  0  0
M  END
> <#>
1668

> <PLATE>
LAT021

> <ROW>
D

> <COL>
10

> <COORD>
D10

> <LATID>
LAT021D10

> <Supplier>
Chembridge

> <Suplier_CAT#>
5540881

> <Name>
Novel

> <Concentration_(mM)>
2.5

> <IC50_(µM)>
inactive

> <Yeast_Active?>
-

> <Pubchem_CID>
839918

$$$$
