
  -ISIS-  08130814242D

 31 34  0  0  0  0  0  0  0  0999 V2000
    0.9000    1.0333    0.0000 C   0  0  0  0  0  0  0  0  0  0  0  0
   -0.1000    1.6208    0.0000 C   0  0  0  0  0  0  0  0  0  0  0  0
    0.5792    1.6208    0.0000 C   0  0  3  0  0  0  0  0  0  0  0  0
   -0.4458    1.0333    0.0000 C   0  0  0  0  0  0  0  0  0  0  0  0
    0.5792    0.4500    0.0000 C   0  0  0  0  0  0  0  0  0  0  0  0
   -0.1000    0.4500    0.0000 N   0  0  0  0  0  0  0  0  0  0  0  0
   -0.4458    2.1958    0.0000 C   0  0  0  0  0  0  0  0  0  0  0  0
    1.1542    2.6333    0.0000 C   0  0  0  0  0  0  0  0  0  0  0  0
    1.5792    1.0333    0.0000 C   0  0  0  0  0  0  0  0  0  0  0  0
   -1.1125    1.0333    0.0000 C   0  0  0  0  0  0  0  0  0  0  0  0
   -1.4500    1.6208    0.0000 C   0  0  3  0  0  0  0  0  0  0  0  0
   -1.1125    2.1958    0.0000 C   0  0  0  0  0  0  0  0  0  0  0  0
   -2.1125    1.6208    0.0000 C   0  0  0  0  0  0  0  0  0  0  0  0
   -0.1208    2.7708    0.0000 O   0  0  0  0  0  0  0  0  0  0  0  0
    0.8375    3.2125    0.0000 C   0  0  0  0  0  0  0  0  0  0  0  0
    1.9042    1.6208    0.0000 O   0  0  0  0  0  0  0  0  0  0  0  0
   -2.4500    1.0333    0.0000 C   0  0  0  0  0  0  0  0  0  0  0  0
   -2.4500    2.1958    0.0000 C   0  0  0  0  0  0  0  0  0  0  0  0
    1.1542    3.7833    0.0000 C   0  0  0  0  0  0  0  0  0  0  0  0
    1.9042    0.4125    0.0000 O   0  0  0  0  0  0  0  0  0  0  0  0
    0.9167   -0.1292    0.0000 C   0  0  0  0  0  0  0  0  0  0  0  0
   -3.4625    1.6208    0.0000 C   0  0  0  0  0  0  0  0  0  0  0  0
   -3.1208    2.1958    0.0000 C   0  0  0  0  0  0  0  0  0  0  0  0
   -3.1208    1.0333    0.0000 C   0  0  0  0  0  0  0  0  0  0  0  0
    0.7875    4.3417    0.0000 F   0  0  0  0  0  0  0  0  0  0  0  0
    1.8375    2.6333    0.0000 C   0  0  0  0  0  0  0  0  0  0  0  0
   -4.1333    1.6208    0.0000 O   0  0  0  0  0  0  0  0  0  0  0  0
    2.1542    3.2125    0.0000 C   0  0  0  0  0  0  0  0  0  0  0  0
    1.8375    3.7833    0.0000 C   0  0  0  0  0  0  0  0  0  0  0  0
    2.5792    0.4125    0.0000 C   0  0  0  0  0  0  0  0  0  0  0  0
   -4.4708    1.0333    0.0000 C   0  0  0  0  0  0  0  0  0  0  0  0
  2  3  1  0  0  0  0
  3  1  1  0  0  0  0
  4  6  1  0  0  0  0
  5  1  2  0  0  0  0
  6  5  1  0  0  0  0
  7  2  1  0  0  0  0
  8  3  1  0  0  0  0
  9  1  1  0  0  0  0
 10  4  1  0  0  0  0
 11 10  1  0  0  0  0
 12  7  1  0  0  0  0
 13 11  1  0  0  0  0
 14  7  2  0  0  0  0
 15  8  1  0  0  0  0
 16  9  2  0  0  0  0
 17 13  1  0  0  0  0
 18 13  2  0  0  0  0
 19 15  2  0  0  0  0
 20  9  1  0  0  0  0
 21  5  1  0  0  0  0
 22 23  2  0  0  0  0
 23 18  1  0  0  0  0
 24 17  2  0  0  0  0
 25 19  1  0  0  0  0
 26  8  2  0  0  0  0
 27 22  1  0  0  0  0
 28 26  1  0  0  0  0
 29 28  2  0  0  0  0
 30 20  1  0  0  0  0
 31 27  1  0  0  0  0
  4  2  2  0  0  0  0
 11 12  1  0  0  0  0
 29 19  1  0  0  0  0
 22 24  1  0  0  0  0
M  END
> <#>
1844

> <PLATE>
LAT024

> <ROW>
D

> <COL>
2

> <COORD>
D02

> <LATID>
LAT024D02

> <Supplier>
Chembridge

> <Suplier_CAT#>
5707182

> <Name>
Novel

> <Sec_Name>
226_D05

> <Concentration_(mM)>
2.5

> <IC50_(µM)>
4

> <Yeast_Active?>
-

> <Pubchem_CID>
1007426

$$$$
