
  -ISIS-  08130814242D

 27 30  0  0  0  0  0  0  0  0999 V2000
    0.0042    1.1333    0.0000 C   0  0  0  0  0  0  0  0  0  0  0  0
    0.7292    1.5708    0.0000 C   0  0  0  0  0  0  0  0  0  0  0  0
    0.0042    0.2500    0.0000 C   0  0  0  0  0  0  0  0  0  0  0  0
    1.5000    1.1500    0.0000 O   0  0  0  0  0  0  0  0  0  0  0  0
    0.9000    2.3958    0.0000 N   0  0  0  0  0  0  0  0  0  0  0  0
    1.7292    2.4958    0.0000 N   0  0  0  0  0  0  0  0  0  0  0  0
   -0.7458    1.5500    0.0000 C   0  0  0  0  0  0  0  0  0  0  0  0
    2.1042    1.7333    0.0000 C   0  0  0  0  0  0  0  0  0  0  0  0
   -0.7458   -0.1542    0.0000 O   0  0  0  0  0  0  0  0  0  0  0  0
   -1.4833    0.2708    0.0000 C   0  0  0  0  0  0  0  0  0  0  0  0
   -1.4833    1.1333    0.0000 C   0  0  0  0  0  0  0  0  0  0  0  0
   -2.2208   -0.1542    0.0000 C   0  0  0  0  0  0  0  0  0  0  0  0
   -2.9833    0.2500    0.0000 C   0  0  0  0  0  0  0  0  0  0  0  0
    0.7667   -0.2000    0.0000 O   0  0  0  0  0  0  0  0  0  0  0  0
   -3.7458   -0.2000    0.0000 N   0  0  3  0  0  0  0  0  0  0  0  0
    2.9292    1.5500    0.0000 C   0  0  0  0  0  0  0  0  0  0  0  0
   -2.2208    1.5500    0.0000 C   0  0  0  0  0  0  0  0  0  0  0  0
    4.6042    1.1708    0.0000 N   0  0  0  0  0  0  0  0  0  0  0  0
   -2.9833    1.1333    0.0000 C   0  0  0  0  0  0  0  0  0  0  0  0
   -4.4833    0.2333    0.0000 C   0  0  0  0  0  0  0  0  0  0  0  0
    4.3500    1.9958    0.0000 C   0  0  0  0  0  0  0  0  0  0  0  0
    4.0042    0.5333    0.0000 C   0  0  0  0  0  0  0  0  0  0  0  0
   -3.7208   -1.0542    0.0000 C   0  0  0  0  0  0  0  0  0  0  0  0
    3.2000    0.7333    0.0000 C   0  0  0  0  0  0  0  0  0  0  0  0
    3.5042    2.1708    0.0000 C   0  0  0  0  0  0  0  0  0  0  0  0
   -5.2208   -0.2000    0.0000 C   0  0  0  0  0  0  0  0  0  0  0  0
   -2.9833   -1.5000    0.0000 C   0  0  0  0  0  0  0  0  0  0  0  0
  2  1  1  0  0  0  0
  3  1  1  0  0  0  0
  4  2  1  0  0  0  0
  5  2  2  0  0  0  0
  6  5  1  0  0  0  0
  7  1  2  0  0  0  0
  8  4  1  0  0  0  0
  9  3  1  0  0  0  0
 10 11  1  0  0  0  0
 11  7  1  0  0  0  0
 12 10  2  0  0  0  0
 13 19  2  0  0  0  0
 14  3  2  0  0  0  0
 15 13  1  0  0  0  0
 16  8  1  0  0  0  0
 17 11  2  0  0  0  0
 18 21  1  0  0  0  0
 19 17  1  0  0  0  0
 20 15  1  0  0  0  0
 21 25  2  0  0  0  0
 22 24  1  0  0  0  0
 23 15  1  0  0  0  0
 24 16  2  0  0  0  0
 25 16  1  0  0  0  0
 26 20  1  0  0  0  0
 27 23  1  0  0  0  0
  9 10  1  0  0  0  0
  8  6  2  0  0  0  0
 13 12  1  0  0  0  0
 18 22  2  0  0  0  0
M  END
> <#>
2059

> <PLATE>
LAT026

> <ROW>
C

> <COL>
9

> <COORD>
C09

> <LATID>
LAT026C09

> <Supplier>
Chembridge

> <Suplier_CAT#>
5646891

> <Sec_Name>
195_D08

> <Concentration_(mM)>
2.5

> <IC50_(µM)>
>100

> <Yeast_Active?>
-

> <Pubchem_CID>
658669

$$$$
