
  -ISIS-  08130814242D

 24 26  0  0  0  0  0  0  0  0999 V2000
    3.9792   -2.3000    0.0000 N   0  0  3  0  0  0  0  0  0  0  0  0
    3.3167   -1.9375    0.0000 C   0  0  0  0  0  0  0  0  0  0  0  0
    5.9667   -1.9167    0.0000 C   0  0  0  0  0  0  0  0  0  0  0  0
    6.6167   -0.8000    0.0000 N   0  3  0  0  0  0  0  0  0  0  0  0
    3.9667   -3.0667    0.0000 C   0  0  0  0  0  0  0  0  0  0  0  0
    2.6542   -2.3042    0.0000 C   0  0  0  0  0  0  0  0  0  0  0  0
    5.9667   -1.1667    0.0000 C   0  0  0  0  0  0  0  0  0  0  0  0
    6.6167   -2.3000    0.0000 C   0  0  3  0  0  0  0  0  0  0  0  0
    3.3167   -3.4500    0.0000 N   0  0  0  0  0  0  0  0  0  0  0  0
    4.6667   -1.9167    0.0000 C   0  0  0  0  0  0  0  0  0  0  0  0
    5.3167   -2.3000    0.0000 C   0  0  0  0  0  0  0  0  0  0  0  0
    2.6542   -3.0667    0.0000 C   0  0  0  0  0  0  0  0  0  0  0  0
    5.3167   -0.8000    0.0000 C   0  0  0  0  0  0  0  0  0  0  0  0
    7.2667   -1.1667    0.0000 O   0  5  0  0  0  0  0  0  0  0  0  0
    3.3167   -1.1875    0.0000 O   0  0  0  0  0  0  0  0  0  0  0  0
    6.6167   -0.0500    0.0000 O   0  0  0  0  0  0  0  0  0  0  0  0
    4.6667   -1.1667    0.0000 C   0  0  0  0  0  0  0  0  0  0  0  0
    7.2042   -2.6500    0.0000 F   0  0  0  0  0  0  0  0  0  0  0  0
    6.7500   -3.0667    0.0000 F   0  0  0  0  0  0  0  0  0  0  0  0
    7.3500   -2.0167    0.0000 F   0  0  0  0  0  0  0  0  0  0  0  0
    2.0042   -1.9375    0.0000 C   0  0  0  0  0  0  0  0  0  0  0  0
    2.0042   -3.4500    0.0000 C   0  0  0  0  0  0  0  0  0  0  0  0
    1.3542   -2.3042    0.0000 C   0  0  0  0  0  0  0  0  0  0  0  0
    1.3542   -3.0667    0.0000 C   0  0  0  0  0  0  0  0  0  0  0  0
  2  1  1  0  0  0  0
  3 11  2  0  0  0  0
  4  7  1  0  0  0  0
  5  1  1  0  0  0  0
  6  2  1  0  0  0  0
  7 13  2  0  0  0  0
  8  3  1  0  0  0  0
  9  5  2  0  0  0  0
 10  1  1  0  0  0  0
 11 10  1  0  0  0  0
 12  9  1  0  0  0  0
 13 17  1  0  0  0  0
 14  4  1  0  0  0  0
 15  2  2  0  0  0  0
 16  4  2  0  0  0  0
 17 10  2  0  0  0  0
 18  8  1  0  0  0  0
 19  8  1  0  0  0  0
 20  8  1  0  0  0  0
 21  6  1  0  0  0  0
 22 12  1  0  0  0  0
 23 21  2  0  0  0  0
 24 22  2  0  0  0  0
 12  6  2  0  0  0  0
  7  3  1  0  0  0  0
 24 23  1  0  0  0  0
M  CHG  2   4   1  14  -1
M  END
> <#>
2023

> <PLATE>
LAT026

> <ROW>
G

> <COL>
4

> <COORD>
G04

> <LATID>
LAT026G04

> <Supplier>
Chembridge

> <Suplier_CAT#>
5672513

> <Sec_Name>
213_B06

> <Concentration_(mM)>
2.5

> <IC50_(µM)>
inactive

> <Yeast_Active?>
-

> <Pubchem_CID>
805028

$$$$
