
  -ISIS-  08130814242D

 36 39  0  0  0  0  0  0  0  0999 V2000
   -1.7333    0.4625    0.0000 N   0  0  3  0  0  0  0  0  0  0  0  0
   -2.3708    0.8708    0.0000 C   0  0  0  0  0  0  0  0  0  0  0  0
   -2.3708    1.6000    0.0000 N   0  0  0  0  0  0  0  0  0  0  0  0
   -1.0708    0.8708    0.0000 C   0  0  0  0  0  0  0  0  0  0  0  0
   -1.0708    1.6000    0.0000 N   0  0  0  0  0  0  0  0  0  0  0  0
   -3.0708    0.4625    0.0000 C   0  0  0  0  0  0  0  0  0  0  0  0
   -4.4583   -0.3667    0.0000 C   0  0  0  0  0  0  0  0  0  0  0  0
   -3.7625   -0.7375    0.0000 C   0  0  0  0  0  0  0  0  0  0  0  0
   -4.4583    0.4625    0.0000 C   0  0  0  0  0  0  0  0  0  0  0  0
   -3.7708    0.8708    0.0000 C   0  0  0  0  0  0  0  0  0  0  0  0
   -3.0708   -0.3667    0.0000 C   0  0  0  0  0  0  0  0  0  0  0  0
    1.0167    0.4625    0.0000 C   0  0  0  0  0  0  0  0  0  0  0  0
   -0.3625    0.4625    0.0000 S   0  0  0  0  0  0  0  0  0  0  0  0
   -1.7333   -0.2375    0.0000 C   0  0  0  0  0  0  0  0  0  0  0  0
    2.4000    0.4625    0.0000 N   0  0  0  0  0  0  0  0  0  0  0  0
    1.7042    0.8708    0.0000 N   0  0  0  0  0  0  0  0  0  0  0  0
    1.0167   -0.3292    0.0000 O   0  0  0  0  0  0  0  0  0  0  0  0
    4.5792   -0.7000    0.0000 N   0  0  0  0  0  0  0  0  0  0  0  0
    0.3042    0.8625    0.0000 C   0  0  0  0  0  0  0  0  0  0  0  0
    3.1042    0.8708    0.0000 C   0  0  0  0  0  0  0  0  0  0  0  0
    3.8167    0.4958    0.0000 C   0  0  0  0  0  0  0  0  0  0  0  0
   -5.1333   -0.7542    0.0000 O   0  0  0  0  0  0  0  0  0  0  0  0
   -5.1333    0.8833    0.0000 O   0  0  0  0  0  0  0  0  0  0  0  0
   -3.7625   -1.5375    0.0000 O   0  0  0  0  0  0  0  0  0  0  0  0
    3.8167   -0.3042    0.0000 C   0  0  0  0  0  0  0  0  0  0  0  0
    5.2375   -0.3042    0.0000 C   0  0  0  0  0  0  0  0  0  0  0  0
   -2.4000   -0.6167    0.0000 C   0  0  0  0  0  0  0  0  0  0  0  0
   -1.0458   -0.6292    0.0000 C   0  0  0  0  0  0  0  0  0  0  0  0
    4.5667    0.9000    0.0000 C   0  0  0  0  0  0  0  0  0  0  0  0
   -5.8208   -0.3875    0.0000 C   0  0  0  0  0  0  0  0  0  0  0  0
   -5.1333    1.7458    0.0000 C   0  0  0  0  0  0  0  0  0  0  0  0
   -4.4458   -1.9292    0.0000 C   0  0  0  0  0  0  0  0  0  0  0  0
    5.2375    0.4958    0.0000 C   0  0  0  0  0  0  0  0  0  0  0  0
   -1.0458   -1.3875    0.0000 C   0  0  0  0  0  0  0  0  0  0  0  0
   -2.4000   -1.3792    0.0000 C   0  0  0  0  0  0  0  0  0  0  0  0
   -1.7333   -1.7542    0.0000 C   0  0  0  0  0  0  0  0  0  0  0  0
  2  1  1  0  0  0  0
  3  2  2  0  0  0  0
  4  1  1  0  0  0  0
  5  4  2  0  0  0  0
  6  2  1  0  0  0  0
  7  8  1  0  0  0  0
  8 11  2  0  0  0  0
  9 10  1  0  0  0  0
 10  6  2  0  0  0  0
 11  6  1  0  0  0  0
 12 19  1  0  0  0  0
 13  4  1  0  0  0  0
 14  1  1  0  0  0  0
 15 16  1  0  0  0  0
 16 12  1  0  0  0  0
 17 12  2  0  0  0  0
 18 25  2  0  0  0  0
 19 13  1  0  0  0  0
 20 15  2  0  0  0  0
 21 20  1  0  0  0  0
 22  7  1  0  0  0  0
 23  9  1  0  0  0  0
 24  8  1  0  0  0  0
 25 21  1  0  0  0  0
 26 33  2  0  0  0  0
 27 14  2  0  0  0  0
 28 14  1  0  0  0  0
 29 21  2  0  0  0  0
 30 22  1  0  0  0  0
 31 23  1  0  0  0  0
 32 24  1  0  0  0  0
 33 29  1  0  0  0  0
 34 28  2  0  0  0  0
 35 27  1  0  0  0  0
 36 34  1  0  0  0  0
  5  3  1  0  0  0  0
 36 35  2  0  0  0  0
  9  7  2  0  0  0  0
 26 18  1  0  0  0  0
M  END
> <#>
1693

> <PLATE>
LAT022

> <ROW>
E

> <COL>
3

> <COORD>
E03

> <LATID>
LAT022E03

> <Supplier>
Chembridge

> <Suplier_CAT#>
5765134

> <Name>
Novel

> <Concentration_(mM)>
2.5

> <IC50_(µM)>
inactive

> <Yeast_Active?>
-

> <Pubchem_CID>
1365651

$$$$
