
  -ISIS-  08130814242D

 24 26  0  0  0  0  0  0  0  0999 V2000
    0.2000    0.3417    0.0000 C   0  0  0  0  0  0  0  0  0  0  0  0
    1.6333    1.1625    0.0000 C   0  0  0  0  0  0  0  0  0  0  0  0
    0.9208   -0.0792    0.0000 N   0  0  0  0  0  0  0  0  0  0  0  0
    0.2000    1.1625    0.0000 N   0  0  0  0  0  0  0  0  0  0  0  0
    1.6333    0.3417    0.0000 C   0  0  0  0  0  0  0  0  0  0  0  0
    2.3458    1.5625    0.0000 C   0  0  0  0  0  0  0  0  0  0  0  0
    0.9208    1.5625    0.0000 C   0  0  0  0  0  0  0  0  0  0  0  0
   -0.5167   -0.0792    0.0000 N   0  0  3  0  0  0  0  0  0  0  0  0
   -1.9292   -0.9167    0.0000 N   0  0  3  0  0  0  0  0  0  0  0  0
   -2.6542   -1.3333    0.0000 C   0  0  0  0  0  0  0  0  0  0  0  0
    3.0708    1.1625    0.0000 C   0  0  0  0  0  0  0  0  0  0  0  0
    2.3458   -0.0792    0.0000 C   0  0  0  0  0  0  0  0  0  0  0  0
    2.3458    2.3917    0.0000 O   0  0  0  0  0  0  0  0  0  0  0  0
   -1.2167    0.3333    0.0000 C   0  0  0  0  0  0  0  0  0  0  0  0
   -0.5125   -0.9167    0.0000 C   0  0  0  0  0  0  0  0  0  0  0  0
   -1.9292   -0.0917    0.0000 C   0  0  0  0  0  0  0  0  0  0  0  0
   -1.2167   -1.3167    0.0000 C   0  0  0  0  0  0  0  0  0  0  0  0
   -3.3667   -0.9083    0.0000 O   0  0  0  0  0  0  0  0  0  0  0  0
    3.0708    0.3417    0.0000 C   0  0  3  0  0  0  0  0  0  0  0  0
   -2.6542   -2.1583    0.0000 O   0  0  0  0  0  0  0  0  0  0  0  0
    0.9250    2.3833    0.0000 C   0  0  0  0  0  0  0  0  0  0  0  0
    3.7833   -0.0708    0.0000 C   0  0  0  0  0  0  0  0  0  0  0  0
   -3.3750   -2.5708    0.0000 C   0  0  0  0  0  0  0  0  0  0  0  0
   -4.0917   -2.1542    0.0000 C   0  0  0  0  0  0  0  0  0  0  0  0
  2  7  2  0  0  0  0
  3  1  1  0  0  0  0
  4  1  2  0  0  0  0
  5  3  2  0  0  0  0
  6  2  1  0  0  0  0
  7  4  1  0  0  0  0
  8  1  1  0  0  0  0
  9 17  1  0  0  0  0
 10  9  1  0  0  0  0
 11  6  1  0  0  0  0
 12  5  1  0  0  0  0
 13  6  2  0  0  0  0
 14  8  1  0  0  0  0
 15  8  1  0  0  0  0
 16 14  1  0  0  0  0
 17 15  1  0  0  0  0
 18 10  2  0  0  0  0
 19 12  1  0  0  0  0
 20 10  1  0  0  0  0
 21  7  1  0  0  0  0
 22 19  1  0  0  0  0
 23 20  1  0  0  0  0
 24 23  1  0  0  0  0
  5  2  1  0  0  0  0
  9 16  1  0  0  0  0
 19 11  1  0  0  0  0
M  END
> <#>
1875

> <PLATE>
LAT024

> <ROW>
C

> <COL>
6

> <COORD>
C06

> <LATID>
LAT024C06

> <Supplier>
Asinex

> <Suplier_CAT#>
BAS 12290538

> <Name>
Novel

> <Concentration_(mM)>
2.5

> <IC50_(µM)>
43

> <Yeast_Active?>
-

> <Pubchem_CID>
665873

$$$$
