
  -ISIS-  08130814242D

 24 25  0  0  0  0  0  0  0  0999 V2000
    1.6167   -0.2167    0.0000 N   0  0  3  0  0  0  0  0  0  0  0  0
    2.5042   -0.6500    0.0000 C   0  0  0  0  0  0  0  0  0  0  0  0
    0.9375   -0.9875    0.0000 C   0  0  0  0  0  0  0  0  0  0  0  0
    1.4500   -1.8500    0.0000 C   0  0  0  0  0  0  0  0  0  0  0  0
    2.4042   -1.6292    0.0000 S   0  0  0  0  0  0  0  0  0  0  0  0
    0.9375   -2.7000    0.0000 C   0  0  0  0  0  0  0  0  0  0  0  0
    3.3792   -0.1667    0.0000 S   0  0  0  0  0  0  0  0  0  0  0  0
   -1.5500   -1.8500    0.0000 C   0  0  0  0  0  0  0  0  0  0  0  0
   -0.0625   -0.8667    0.0000 O   0  0  0  0  0  0  0  0  0  0  0  0
   -0.0625   -2.7000    0.0000 C   0  0  0  0  0  0  0  0  0  0  0  0
   -0.5708    2.4208    0.0000 C   0  0  0  0  0  0  0  0  0  0  0  0
   -2.0500   -2.7000    0.0000 C   0  0  0  0  0  0  0  0  0  0  0  0
   -0.5625   -1.8500    0.0000 C   0  0  0  0  0  0  0  0  0  0  0  0
   -1.3208    1.7833    0.0000 O   0  0  0  0  0  0  0  0  0  0  0  0
    1.4500    0.7833    0.0000 C   0  0  0  0  0  0  0  0  0  0  0  0
   -1.5500   -3.5667    0.0000 C   0  0  0  0  0  0  0  0  0  0  0  0
   -0.5625   -3.5667    0.0000 C   0  0  0  0  0  0  0  0  0  0  0  0
   -0.7458    3.4000    0.0000 O   0  0  0  0  0  0  0  0  0  0  0  0
   -2.0458   -1.0000    0.0000 O   0  0  0  0  0  0  0  0  0  0  0  0
   -3.0333   -2.7000    0.0000 O   0  0  0  0  0  0  0  0  0  0  0  0
    0.5167    1.1125    0.0000 C   0  0  0  0  0  0  0  0  0  0  0  0
    0.3542    2.0958    0.0000 C   0  0  0  0  0  0  0  0  0  0  0  0
   -3.0208   -1.0000    0.0000 C   0  0  0  0  0  0  0  0  0  0  0  0
   -3.5125   -1.8375    0.0000 C   0  0  0  0  0  0  0  0  0  0  0  0
  2  1  1  0  0  0  0
  3  1  1  0  0  0  0
  4  3  1  0  0  0  0
  5  2  1  0  0  0  0
  6  4  2  0  0  0  0
  7  2  2  0  0  0  0
  8 13  2  0  0  0  0
  9  3  2  0  0  0  0
 10  6  1  0  0  0  0
 11 22  1  0  0  0  0
 12 16  2  0  0  0  0
 13 10  1  0  0  0  0
 14 11  2  0  0  0  0
 15  1  1  0  0  0  0
 16 17  1  0  0  0  0
 17 10  2  0  0  0  0
 18 11  1  0  0  0  0
 19  8  1  0  0  0  0
 20 12  1  0  0  0  0
 21 15  1  0  0  0  0
 22 21  1  0  0  0  0
 23 19  1  0  0  0  0
 24 23  1  0  0  0  0
  5  4  1  0  0  0  0
 12  8  1  0  0  0  0
M  END
> <#>
1781

> <PLATE>
LAT023

> <ROW>
E

> <COL>
4

> <COORD>
E04

> <LATID>
LAT023E04

> <Supplier>
Chembridge

> <Suplier_CAT#>
5543372

> <Name>
Novel

> <Sec_Name>
160_A06

> <Concentration_(mM)>
2.5

> <IC50_(µM)>
inactive

> <Yeast_Active?>
-

> <Pubchem_CID>
1628440

$$$$
