
  -ISIS-  08130814242D

 28 30  0  0  0  0  0  0  0  0999 V2000
    1.0167    0.6833    0.0000 C   0  0  0  0  0  0  0  0  0  0  0  0
    1.8000   -0.7000    0.0000 N   0  0  3  0  0  0  0  0  0  0  0  0
    1.0167   -0.2375    0.0000 C   0  0  0  0  0  0  0  0  0  0  0  0
    1.8000    1.1208    0.0000 C   0  0  0  0  0  0  0  0  0  0  0  0
    2.5792   -0.2375    0.0000 C   0  0  0  0  0  0  0  0  0  0  0  0
    2.5792    0.6833    0.0000 C   0  0  0  0  0  0  0  0  0  0  0  0
    0.2375    1.1208    0.0000 C   0  0  0  0  0  0  0  0  0  0  0  0
    1.8000   -1.6000    0.0000 C   0  0  0  0  0  0  0  0  0  0  0  0
   -0.5458    0.6833    0.0000 N   0  0  0  0  0  0  0  0  0  0  0  0
    3.3542   -0.7000    0.0000 O   0  0  0  0  0  0  0  0  0  0  0  0
    0.2375    2.0458    0.0000 O   0  0  0  0  0  0  0  0  0  0  0  0
    0.2375   -0.7000    0.0000 C   0  0  0  0  0  0  0  0  0  0  0  0
    2.5792   -2.0542    0.0000 C   0  0  0  0  0  0  0  0  0  0  0  0
   -1.3208    1.1208    0.0000 C   0  0  0  0  0  0  0  0  0  0  0  0
   -3.6625   -0.2375    0.0000 C   0  0  0  0  0  0  0  0  0  0  0  0
    4.1375   -2.9542    0.0000 C   0  0  0  0  0  0  0  0  0  0  0  0
    1.8000    2.0458    0.0000 C   0  0  0  0  0  0  0  0  0  0  0  0
   -2.1000    0.6833    0.0000 C   0  0  0  0  0  0  0  0  0  0  0  0
   -4.4708   -0.7167    0.0000 F   0  0  0  0  0  0  0  0  0  0  0  0
    4.9375   -3.4375    0.0000 F   0  0  0  0  0  0  0  0  0  0  0  0
    2.5792   -2.9542    0.0000 C   0  0  0  0  0  0  0  0  0  0  0  0
    3.3542   -1.6000    0.0000 C   0  0  0  0  0  0  0  0  0  0  0  0
   -3.6625    0.6833    0.0000 C   0  0  0  0  0  0  0  0  0  0  0  0
    3.3542   -3.4167    0.0000 C   0  0  0  0  0  0  0  0  0  0  0  0
   -2.8833   -0.7000    0.0000 C   0  0  0  0  0  0  0  0  0  0  0  0
    4.1375   -2.0542    0.0000 C   0  0  0  0  0  0  0  0  0  0  0  0
   -2.1000   -0.2375    0.0000 C   0  0  0  0  0  0  0  0  0  0  0  0
   -2.8833    1.1208    0.0000 C   0  0  0  0  0  0  0  0  0  0  0  0
  2  3  1  0  0  0  0
  3  1  2  0  0  0  0
  4  1  1  0  0  0  0
  5  6  1  0  0  0  0
  6  4  2  0  0  0  0
  7  1  1  0  0  0  0
  8  2  1  0  0  0  0
  9  7  1  0  0  0  0
 10  5  2  0  0  0  0
 11  7  2  0  0  0  0
 12  3  1  0  0  0  0
 13  8  1  0  0  0  0
 14  9  1  0  0  0  0
 15 23  1  0  0  0  0
 16 26  2  0  0  0  0
 17  4  1  0  0  0  0
 18 14  1  0  0  0  0
 19 15  1  0  0  0  0
 20 16  1  0  0  0  0
 21 13  1  0  0  0  0
 22 13  2  0  0  0  0
 23 28  2  0  0  0  0
 24 21  2  0  0  0  0
 25 27  1  0  0  0  0
 26 22  1  0  0  0  0
 27 18  2  0  0  0  0
 28 18  1  0  0  0  0
  5  2  1  0  0  0  0
 15 25  2  0  0  0  0
 16 24  1  0  0  0  0
M  END
> <#>
1765

> <PLATE>
LAT023

> <ROW>
E

> <COL>
2

> <COORD>
E02

> <LATID>
LAT023E02

> <Supplier>
Chembridge

> <Suplier_CAT#>
5521492

> <Name>
Novel

> <Sec_Name>
144_F10

> <Concentration_(mM)>
2.5

> <IC50_(µM)>
20

> <Yeast_Active?>
-

> <Pubchem_CID>
NULL

$$$$
