
  -ISIS-  08130814242D

 24 28  0  0  0  0  0  0  0  0999 V2000
    6.2167   -5.1667    0.0000 N   0  0  3  0  0  0  0  0  0  0  0  0
    5.4375   -5.5792    0.0000 C   0  0  0  0  0  0  0  0  0  0  0  0
    5.7375   -4.5792    0.0000 C   0  0  0  0  0  0  0  0  0  0  0  0
    4.7167   -5.3875    0.0000 C   0  0  3  0  0  0  0  0  0  0  0  0
    5.0167   -4.7667    0.0000 C   0  0  3  0  0  0  0  0  0  0  0  0
    4.0875   -3.4875    0.0000 C   0  0  0  0  0  0  0  0  0  0  0  0
    4.2375   -4.3000    0.0000 C   0  0  3  0  0  0  0  0  0  0  0  0
    4.0000   -5.0042    0.0000 C   0  0  3  0  0  0  0  0  0  0  0  0
    2.9667   -5.4500    0.0000 C   0  0  0  0  0  0  0  0  0  0  0  0
    3.3792   -4.6042    0.0000 C   0  0  0  0  0  0  0  0  0  0  0  0
    7.0667   -5.1667    0.0000 C   0  0  0  0  0  0  0  0  0  0  0  0
    4.0875   -2.7375    0.0000 C   0  0  0  0  0  0  0  0  0  0  0  0
    5.4375   -6.3292    0.0000 O   0  0  0  0  0  0  0  0  0  0  0  0
    5.9292   -3.8500    0.0000 O   0  0  0  0  0  0  0  0  0  0  0  0
    7.4375   -5.8167    0.0000 C   0  0  0  0  0  0  0  0  0  0  0  0
    7.4375   -4.5167    0.0000 C   0  0  0  0  0  0  0  0  0  0  0  0
    4.7292   -2.3667    0.0000 C   0  0  0  0  0  0  0  0  0  0  0  0
    3.5292   -2.2500    0.0000 C   0  0  0  0  0  0  0  0  0  0  0  0
    7.0542   -6.4542    0.0000 C   0  0  0  0  0  0  0  0  0  0  0  0
    8.1875   -5.8167    0.0000 C   0  0  0  0  0  0  0  0  0  0  0  0
    8.1875   -4.5167    0.0000 C   0  0  0  0  0  0  0  0  0  0  0  0
    4.5667   -1.6375    0.0000 C   0  0  0  0  0  0  0  0  0  0  0  0
    3.8292   -1.5667    0.0000 C   0  0  0  0  0  0  0  0  0  0  0  0
    8.5667   -5.1667    0.0000 C   0  0  0  0  0  0  0  0  0  0  0  0
  2  1  1  0  0  0  0
  3  1  1  0  0  0  0
  4  2  1  0  0  0  0
  5  3  1  0  0  0  0
  6  7  1  0  0  0  0
  7  5  1  0  0  0  0
  8  4  1  0  0  0  0
  9  8  1  0  0  0  0
 10  7  1  0  0  0  0
 11  1  1  0  0  0  0
 12  6  2  0  0  0  0
 13  2  2  0  0  0  0
 14  3  2  0  0  0  0
 15 11  1  0  0  0  0
 16 11  2  0  0  0  0
 17 12  1  0  0  0  0
 18 12  1  0  0  0  0
 19 15  1  0  0  0  0
 20 15  2  0  0  0  0
 21 16  1  0  0  0  0
 22 17  1  0  0  0  0
 23 18  1  0  0  0  0
 24 21  2  0  0  0  0
  4  5  1  0  0  0  0
  6  8  1  0  0  0  0
 24 20  1  0  0  0  0
 10  9  2  0  0  0  0
 23 22  1  0  0  0  0
M  END
> <#>
1807

> <PLATE>
LAT023

> <ROW>
G

> <COL>
7

> <COORD>
G07

> <LATID>
LAT023G07

> <Supplier>
Chembridge

> <Suplier_CAT#>
5630876

> <Name>
Isondyben

> <Sec_Name>
192_E03

> <Concentration_(mM)>
2.5

> <IC50_(µM)>
8

> <Yeast_Active?>
-

> <Pubchem_CID>
2856870

$$$$
