
  -ISIS-  08130814242D

 24 25  0  0  0  0  0  0  0  0999 V2000
    3.3042    0.7333    0.0000 C   0  0  0  0  0  0  0  0  0  0  0  0
    4.0000    0.3208    0.0000 N   0  3  0  0  0  0  0  0  0  0  0  0
   -1.5500    0.3500    0.0000 N   0  3  0  0  0  0  0  0  0  0  0  0
   -0.8500    0.7500    0.0000 C   0  0  0  0  0  0  0  0  0  0  0  0
    3.3292    1.5333    0.0000 C   0  0  0  0  0  0  0  0  0  0  0  0
    2.6042    0.3333    0.0000 C   0  0  0  0  0  0  0  0  0  0  0  0
   -0.1500    0.3500    0.0000 C   0  0  0  0  0  0  0  0  0  0  0  0
    1.9292    0.7333    0.0000 C   0  0  0  0  0  0  0  0  0  0  0  0
    0.5500    0.7500    0.0000 C   0  0  0  0  0  0  0  0  0  0  0  0
    1.2292    0.3333    0.0000 C   0  0  0  0  0  0  0  0  0  0  0  0
    2.6292    1.9333    0.0000 C   0  0  0  0  0  0  0  0  0  0  0  0
   -0.8500    1.5500    0.0000 C   0  0  0  0  0  0  0  0  0  0  0  0
    4.0542   -0.5000    0.0000 O   0  5  0  0  0  0  0  0  0  0  0  0
   -2.2958    0.6958    0.0000 O   0  5  0  0  0  0  0  0  0  0  0  0
    4.7292    0.6708    0.0000 O   0  0  0  0  0  0  0  0  0  0  0  0
   -1.6000   -0.4500    0.0000 O   0  0  0  0  0  0  0  0  0  0  0  0
    4.0500    1.9333    0.0000 N   0  0  3  0  0  0  0  0  0  0  0  0
    1.9292    1.5333    0.0000 C   0  0  0  0  0  0  0  0  0  0  0  0
    0.5500    1.5500    0.0000 C   0  0  0  0  0  0  0  0  0  0  0  0
    1.2292   -0.4667    0.0000 O   0  0  0  0  0  0  0  0  0  0  0  0
   -0.1500    1.9583    0.0000 C   0  0  0  0  0  0  0  0  0  0  0  0
   -1.5708    1.9583    0.0000 O   0  0  0  0  0  0  0  0  0  0  0  0
    4.0667    2.7333    0.0000 C   0  0  0  0  0  0  0  0  0  0  0  0
    4.7292    1.5125    0.0000 C   0  0  0  0  0  0  0  0  0  0  0  0
  2  1  1  0  0  0  0
  3  4  1  0  0  0  0
  4  7  2  0  0  0  0
  5  1  1  0  0  0  0
  6  1  2  0  0  0  0
  7  9  1  0  0  0  0
  8  6  1  0  0  0  0
  9 10  1  0  0  0  0
 10  8  1  0  0  0  0
 11  5  2  0  0  0  0
 12 21  2  0  0  0  0
 13  2  1  0  0  0  0
 14  3  1  0  0  0  0
 15  2  2  0  0  0  0
 16  3  2  0  0  0  0
 17  5  1  0  0  0  0
 18  8  2  0  0  0  0
 19  9  2  0  0  0  0
 20 10  2  0  0  0  0
 21 19  1  0  0  0  0
 22 12  1  0  0  0  0
 23 17  1  0  0  0  0
 24 17  1  0  0  0  0
 18 11  1  0  0  0  0
 12  4  1  0  0  0  0
M  CHG  4   2   1   3   1  13  -1  14  -1
M  END
> <#>
1119

> <PLATE>
LAT014

> <ROW>
G

> <COL>
11

> <COORD>
G11

> <LATID>
LAT014G11

> <Supplier>
Chembridge

> <Suplier_CAT#>
5323651

> <Name>
Novel

> <Concentration_(mM)>
2.5

> <IC50_(µM)>
42

> <Yeast_Active?>
-

> <Pubchem_CID>
2841464

$$$$
