
  -ISIS-  08130814242D

 16 17  0  0  0  0  0  0  0  0999 V2000
    1.7542    2.3000    0.0000 N   0  0  0  0  0  0  0  0  0  0  0  0
    0.1875    2.2833    0.0000 N   0  0  3  0  0  0  0  0  0  0  0  0
    1.0542    2.6000    0.0000 C   0  0  0  0  0  0  0  0  0  0  0  0
    1.4167    1.3333    0.0000 C   0  0  0  0  0  0  0  0  0  0  0  0
    0.4542    1.6625    0.0000 C   0  0  0  0  0  0  0  0  0  0  0  0
   -3.3000    2.4000    0.0000 C   0  0  0  0  0  0  0  0  0  0  0  0
   -4.9208    2.4000    0.0000 C   0  0  0  0  0  0  0  0  0  0  0  0
   -4.1125    0.9958    0.0000 C   0  0  0  0  0  0  0  0  0  0  0  0
   -3.3000    1.4625    0.0000 C   0  0  0  0  0  0  0  0  0  0  0  0
   -4.1125    2.8708    0.0000 C   0  0  0  0  0  0  0  0  0  0  0  0
   -4.9208    1.4625    0.0000 C   0  0  0  0  0  0  0  0  0  0  0  0
   -2.4708    2.7500    0.0000 O   0  0  0  0  0  0  0  0  0  0  0  0
   -0.6458    2.7333    0.0000 C   0  0  0  0  0  0  0  0  0  0  0  0
   -1.6625    2.3458    0.0000 C   0  0  0  0  0  0  0  0  0  0  0  0
   -4.1208    0.4125    0.0000 C   0  0  0  0  0  0  0  0  0  0  0  0
   -5.5208    2.7333    0.0000 C   0  0  0  0  0  0  0  0  0  0  0  0
  2  3  1  0  0  0  0
  3  1  2  0  0  0  0
  4  1  1  0  0  0  0
  5  4  2  0  0  0  0
  6 12  1  0  0  0  0
  7 10  2  0  0  0  0
  8  9  1  0  0  0  0
  9  6  2  0  0  0  0
 10  6  1  0  0  0  0
 11  7  1  0  0  0  0
 12 14  1  0  0  0  0
 13  2  1  0  0  0  0
 14 13  1  0  0  0  0
 15  8  1  0  0  0  0
 16  7  1  0  0  0  0
  2  5  1  0  0  0  0
 11  8  2  0  0  0  0
M  END
> <#>
1980

> <PLATE>
LAT025

> <ROW>
D

> <COL>
9

> <COORD>
D09

> <LATID>
LAT025D09

> <Supplier>
Chembridge

> <Suplier_CAT#>
5478321

> <Sec_Name>
140_D08

> <Concentration_(mM)>
2.5

> <IC50_(µM)>
inactive

> <Yeast_Active?>
-

> <Pubchem_CID>
868468

$$$$
