
  -ISIS-  08130814242D

 22 23  0  0  0  0  0  0  0  0999 V2000
   -0.7000    1.6125    0.0000 N   0  0  0  0  0  0  0  0  0  0  0  0
   -0.9500    0.0833    0.0000 C   0  0  3  0  0  0  0  0  0  0  0  0
    0.0292    1.7500    0.0000 C   0  0  0  0  0  0  0  0  0  0  0  0
   -0.9708    0.9125    0.0000 C   0  0  3  0  0  0  0  0  0  0  0  0
   -1.6833    0.7833    0.0000 N   0  0  0  0  0  0  0  0  0  0  0  0
   -2.6708   -0.0167    0.0000 C   0  0  0  0  0  0  0  0  0  0  0  0
    0.5167    1.1708    0.0000 C   0  0  0  0  0  0  0  0  0  0  0  0
   -3.0833   -0.6375    0.0000 O   0  0  0  0  0  0  0  0  0  0  0  0
    0.2875    2.4583    0.0000 O   0  0  0  0  0  0  0  0  0  0  0  0
   -3.1500    0.5500    0.0000 C   0  0  0  0  0  0  0  0  0  0  0  0
   -3.8000   -0.4792    0.0000 C   0  0  0  0  0  0  0  0  0  0  0  0
   -3.8500    0.2833    0.0000 C   0  0  0  0  0  0  0  0  0  0  0  0
   -0.9708   -0.7000    0.0000 Cl  0  0  0  0  0  0  0  0  0  0  0  0
   -1.8708   -0.4042    0.0000 Cl  0  0  0  0  0  0  0  0  0  0  0  0
   -0.1000   -0.4667    0.0000 Cl  0  0  0  0  0  0  0  0  0  0  0  0
   -1.9500    0.0958    0.0000 C   0  0  0  0  0  0  0  0  0  0  0  0
    0.3000    0.4500    0.0000 C   0  0  0  0  0  0  0  0  0  0  0  0
    1.2542    1.3458    0.0000 C   0  0  0  0  0  0  0  0  0  0  0  0
    1.5042    0.0500    0.0000 C   0  0  0  0  0  0  0  0  0  0  0  0
    1.7500    0.7500    0.0000 C   0  0  0  0  0  0  0  0  0  0  0  0
    0.7792   -0.0917    0.0000 C   0  0  0  0  0  0  0  0  0  0  0  0
    2.0042   -0.5042    0.0000 Br  0  0  0  0  0  0  0  0  0  0  0  0
  2  4  1  0  0  0  0
  3  1  1  0  0  0  0
  4  1  1  0  0  0  0
  5  4  1  0  0  0  0
  6 16  1  0  0  0  0
  7  3  1  0  0  0  0
  8  6  1  0  0  0  0
  9  3  2  0  0  0  0
 10  6  2  0  0  0  0
 11  8  1  0  0  0  0
 12 10  1  0  0  0  0
 13  2  1  0  0  0  0
 14  2  1  0  0  0  0
 15  2  1  0  0  0  0
 16  5  1  0  0  0  0
 17  7  2  0  0  0  0
 18  7  1  0  0  0  0
 19 20  1  0  0  0  0
 20 18  2  0  0  0  0
 21 17  1  0  0  0  0
 22 19  1  0  0  0  0
 19 21  2  0  0  0  0
 12 11  2  0  0  0  0
M  END
> <#>
1782

> <PLATE>
LAT023

> <ROW>
F

> <COL>
4

> <COORD>
F04

> <LATID>
LAT023F04

> <Supplier>
Chembridge

> <Suplier_CAT#>
5544797

> <Name>
Novel

> <Sec_Name>
160_F09

> <Concentration_(mM)>
2.5

> <IC50_(µM)>
5

> <Yeast_Active?>
-

> <Pubchem_CID>
1014586

$$$$
