
  -ISIS-  08130814242D

 17 18  0  0  0  0  0  0  0  0999 V2000
    1.0167    1.9958    0.0000 C   0  0  0  0  0  0  0  0  0  0  0  0
    0.3000    0.7125    0.0000 N   0  0  0  0  0  0  0  0  0  0  0  0
    1.0167    1.1333    0.0000 N   0  0  0  0  0  0  0  0  0  0  0  0
    1.7792    2.4125    0.0000 O   0  0  0  0  0  0  0  0  0  0  0  0
   -1.1625   -1.8667    0.0000 N   0  0  0  0  0  0  0  0  0  0  0  0
    0.3000    2.4125    0.0000 C   0  0  0  0  0  0  0  0  0  0  0  0
    0.3000   -0.1500    0.0000 C   0  0  0  0  0  0  0  0  0  0  0  0
   -0.4458   -0.5875    0.0000 C   0  0  0  0  0  0  0  0  0  0  0  0
   -0.4458   -1.4500    0.0000 C   0  0  0  0  0  0  0  0  0  0  0  0
   -1.9083   -1.4500    0.0000 C   0  0  0  0  0  0  0  0  0  0  0  0
    0.3000    3.2500    0.0000 C   0  0  0  0  0  0  0  0  0  0  0  0
   -0.4458    1.9958    0.0000 C   0  0  0  0  0  0  0  0  0  0  0  0
   -1.1625   -0.1667    0.0000 C   0  0  0  0  0  0  0  0  0  0  0  0
   -1.9083   -0.5875    0.0000 C   0  0  0  0  0  0  0  0  0  0  0  0
   -0.4458    3.6708    0.0000 C   0  0  0  0  0  0  0  0  0  0  0  0
   -1.1833    2.4125    0.0000 C   0  0  0  0  0  0  0  0  0  0  0  0
   -1.1833    3.2500    0.0000 C   0  0  0  0  0  0  0  0  0  0  0  0
  2  3  1  0  0  0  0
  3  1  1  0  0  0  0
  4  1  2  0  0  0  0
  5  9  1  0  0  0  0
  6  1  1  0  0  0  0
  7  2  2  0  0  0  0
  8  7  1  0  0  0  0
  9  8  2  0  0  0  0
 10 14  1  0  0  0  0
 11  6  2  0  0  0  0
 12  6  1  0  0  0  0
 13  8  1  0  0  0  0
 14 13  2  0  0  0  0
 15 11  1  0  0  0  0
 16 12  2  0  0  0  0
 17 16  1  0  0  0  0
 15 17  2  0  0  0  0
 10  5  2  0  0  0  0
M  END
> <#>
1623

> <PLATE>
LAT021

> <ROW>
G

> <COL>
4

> <COORD>
G04

> <LATID>
LAT021G04

> <Supplier>
Chembridge

> <Suplier_CAT#>
5104580

> <Name>
Novel

> <Concentration_(mM)>
2.5

> <IC50_(µM)>
>100

> <Yeast_Active?>
-

> <Pubchem_CID>
724504

$$$$
