
  -ISIS-  08130814242D

 21 23  0  0  0  0  0  0  0  0999 V2000
    3.1500    2.5500    0.0000 C   0  0  3  0  0  0  0  0  0  0  0  0
    4.6000    2.4875    0.0000 C   0  0  3  0  0  0  0  0  0  0  0  0
    3.8667    2.2250    0.0000 C   0  0  3  0  0  0  0  0  0  0  0  0
    3.5167    1.5333    0.0000 C   0  0  0  0  0  0  0  0  0  0  0  0
    2.8250    1.8583    0.0000 C   0  0  0  0  0  0  0  0  0  0  0  0
    2.4417    2.8833    0.0000 C   0  0  0  0  0  0  0  0  0  0  0  0
    3.0917    3.3208    0.0000 C   0  0  0  0  0  0  0  0  0  0  0  0
    3.7917    3.0000    0.0000 C   0  0  0  0  0  0  0  0  0  0  0  0
    1.7417    2.4583    0.0000 N   0  0  0  0  0  0  0  0  0  0  0  0
    3.7917    0.7875    0.0000 O   0  0  0  0  0  0  0  0  0  0  0  0
    0.3250    1.6375    0.0000 N   0  0  0  0  0  0  0  0  0  0  0  0
    2.4792    3.7083    0.0000 O   0  0  0  0  0  0  0  0  0  0  0  0
    1.7542    1.6250    0.0000 C   0  0  0  0  0  0  0  0  0  0  0  0
    1.0417    1.2083    0.0000 C   0  0  0  0  0  0  0  0  0  0  0  0
    5.1875    1.9958    0.0000 C   0  0  0  0  0  0  0  0  0  0  0  0
    4.9292    3.1833    0.0000 C   0  0  0  0  0  0  0  0  0  0  0  0
    4.4625    1.7333    0.0000 C   0  0  0  0  0  0  0  0  0  0  0  0
   -0.3833    1.2083    0.0000 C   0  0  0  0  0  0  0  0  0  0  0  0
    1.0417    0.3958    0.0000 C   0  0  0  0  0  0  0  0  0  0  0  0
   -0.3833    0.3958    0.0000 C   0  0  0  0  0  0  0  0  0  0  0  0
    0.3250   -0.0500    0.0000 C   0  0  0  0  0  0  0  0  0  0  0  0
  2  1  1  0  0  0  0
  3  2  1  0  0  0  0
  4  5  1  0  0  0  0
  5  1  1  0  0  0  0
  6  1  1  0  0  0  0
  7  1  1  0  0  0  0
  8  7  1  0  0  0  0
  9  6  1  0  0  0  0
 10  4  2  0  0  0  0
 11 14  2  0  0  0  0
 12  6  2  0  0  0  0
 13  9  1  0  0  0  0
 14 13  1  0  0  0  0
 15  2  1  0  0  0  0
 16  2  1  0  0  0  0
 17  3  1  0  0  0  0
 18 11  1  0  0  0  0
 19 14  1  0  0  0  0
 20 21  1  0  0  0  0
 21 19  2  0  0  0  0
  3  8  1  0  0  0  0
  3  4  1  0  0  0  0
 20 18  2  0  0  0  0
M  END
> <#>
1582

> <PLATE>
LAT020

> <ROW>
F

> <COL>
9

> <COORD>
F09

> <LATID>
LAT020F09

> <Supplier>
Chembridge

> <Suplier_CAT#>
7975307

> <Name>
Novel

> <Concentration_(mM)>
2.5

> <IC50_(µM)>
inactive

> <Yeast_Active?>
-

> <Pubchem_CID>
2979406

$$$$
