
  -ISIS-  08130814242D

 21 22  0  0  0  0  0  0  0  0999 V2000
    2.4417    4.1917    0.0000 C   0  0  0  0  0  0  0  0  0  0  0  0
    3.6542    4.9042    0.0000 C   0  0  0  0  0  0  0  0  0  0  0  0
    6.0875    4.9167    0.0000 C   0  0  0  0  0  0  0  0  0  0  0  0
    4.8750    4.2042    0.0000 C   0  0  0  0  0  0  0  0  0  0  0  0
    7.3042    4.2167    0.0000 C   0  0  0  0  0  0  0  0  0  0  0  0
    1.2375    4.8875    0.0000 C   0  0  0  0  0  0  0  0  0  0  0  0
    2.4417    2.7958    0.0000 C   0  0  0  0  0  0  0  0  0  0  0  0
    3.6500    6.3042    0.0000 O   0  0  0  0  0  0  0  0  0  0  0  0
    6.0792    6.3167    0.0000 O   0  0  0  0  0  0  0  0  0  0  0  0
    8.5125    4.9042    0.0000 C   0  0  0  0  0  0  0  0  0  0  0  0
    0.0292    4.1917    0.0000 C   0  0  0  0  0  0  0  0  0  0  0  0
    1.2250    2.1000    0.0000 C   0  0  0  0  0  0  0  0  0  0  0  0
    0.0167    2.8083    0.0000 C   0  0  0  0  0  0  0  0  0  0  0  0
    1.2292    6.2917    0.0000 O   0  0  0  0  0  0  0  0  0  0  0  0
    1.2167    0.6958    0.0000 O   0  0  0  0  0  0  0  0  0  0  0  0
    7.2917    2.8333    0.0000 C   0  0  0  0  0  0  0  0  0  0  0  0
    8.5042    6.3125    0.0000 C   0  0  0  0  0  0  0  0  0  0  0  0
    9.7167    4.2125    0.0000 C   0  0  0  0  0  0  0  0  0  0  0  0
    0.0000    0.0000    0.0000 C   0  0  0  0  0  0  0  0  0  0  0  0
    8.5000    2.1208    0.0000 C   0  0  0  0  0  0  0  0  0  0  0  0
    9.7125    2.8125    0.0000 C   0  0  0  0  0  0  0  0  0  0  0  0
  2  1  1  0  0  0  0
  3  4  1  0  0  0  0
  4  2  1  0  0  0  0
  5  3  1  0  0  0  0
  6  1  2  0  0  0  0
  7  1  1  0  0  0  0
  8  2  2  0  0  0  0
  9  3  2  0  0  0  0
 10  5  1  0  0  0  0
 11  6  1  0  0  0  0
 12  7  2  0  0  0  0
 13 12  1  0  0  0  0
 14  6  1  0  0  0  0
 15 12  1  0  0  0  0
 16  5  2  0  0  0  0
 17 10  1  0  0  0  0
 18 10  2  0  0  0  0
 19 15  1  0  0  0  0
 20 16  1  0  0  0  0
 21 20  2  0  0  0  0
 13 11  2  0  0  0  0
 21 18  1  0  0  0  0
M  END
> <#>
1222

> <PLATE>
LAT016

> <ROW>
F

> <COL>
4

> <COORD>
F04

> <LATID>
LAT016F04

> <Supplier>
Chembridge

> <Suplier_CAT#>
5977084

> <Name>
Novel

> <Concentration_(mM)>
2.5

> <IC50_(µM)>
>100

> <Yeast_Active?>
-

> <Pubchem_CID>
776188

$$$$
