
  -ISIS-  08130814242D

 19 19  0  0  0  0  0  0  0  0999 V2000
    0.6042    2.0708    0.0000 N   0  0  0  0  0  0  0  0  0  0  0  0
   -0.6958    2.0708    0.0000 C   0  0  3  0  0  0  0  0  0  0  0  0
    2.5542    1.6958    0.0000 N   0  0  0  0  0  0  0  0  0  0  0  0
   -0.0458    1.6958    0.0000 C   0  0  3  0  0  0  0  0  0  0  0  0
   -1.3458    1.6958    0.0000 C   0  0  0  0  0  0  0  0  0  0  0  0
    1.9042    2.0708    0.0000 C   0  0  0  0  0  0  0  0  0  0  0  0
    1.2542    1.6958    0.0000 C   0  0  0  0  0  0  0  0  0  0  0  0
   -0.6958    2.8208    0.0000 O   0  0  0  0  0  0  0  0  0  0  0  0
    3.2042    2.0708    0.0000 C   0  0  0  0  0  0  0  0  0  0  0  0
   -1.3458    0.9458    0.0000 C   0  0  0  0  0  0  0  0  0  0  0  0
   -1.9875    2.0708    0.0000 C   0  0  0  0  0  0  0  0  0  0  0  0
   -0.0458    0.9458    0.0000 C   0  0  0  0  0  0  0  0  0  0  0  0
    1.9042    2.8208    0.0000 C   0  0  0  0  0  0  0  0  0  0  0  0
    3.2042    2.8208    0.0000 C   0  0  0  0  0  0  0  0  0  0  0  0
   -2.6375    1.6958    0.0000 C   0  0  0  0  0  0  0  0  0  0  0  0
   -1.9875    0.5708    0.0000 C   0  0  0  0  0  0  0  0  0  0  0  0
    2.5542    3.1958    0.0000 C   0  0  0  0  0  0  0  0  0  0  0  0
   -2.6375    0.9458    0.0000 C   0  0  0  0  0  0  0  0  0  0  0  0
    3.9542    0.5708    0.0000 Cl  0  0  0  0  0  0  0  0  0  0  0  0
  2  4  1  0  0  0  0
  3  6  2  0  0  0  0
  4  1  1  0  0  0  0
  5  2  1  0  0  0  0
  6  7  1  0  0  0  0
  7  1  1  0  0  0  0
  8  2  1  0  0  0  0
  9  3  1  0  0  0  0
 10  5  1  0  0  0  0
 11  5  2  0  0  0  0
 12  4  1  0  0  0  0
 13  6  1  0  0  0  0
 14 17  1  0  0  0  0
 15 11  1  0  0  0  0
 16 10  2  0  0  0  0
 17 13  2  0  0  0  0
 18 15  2  0  0  0  0
  9 14  2  0  0  0  0
 16 18  1  0  0  0  0
M  END
> <#>
1470

> <PLATE>
LAT019

> <ROW>
F

> <COL>
5

> <COORD>
F05

> <LATID>
LAT019F05

> <Supplier>
Chembridge

> <Suplier_CAT#>
9033470

> <Name>
Novel

> <Concentration_(mM)>
2.5

> <IC50_(µM)>
inactive

> <Yeast_Active?>
-

> <Pubchem_CID>
4723816

$$$$
