
  -ISIS-  08130814242D

 37 39  0  0  0  0  0  0  0  0999 V2000
   -0.8333    0.0500    0.0000 N   0  0  3  0  0  0  0  0  0  0  0  0
   -0.5333   -0.3667    0.0000 C   0  0  0  0  0  0  0  0  0  0  0  0
   -0.8333   -0.7875    0.0000 N   0  0  3  0  0  0  0  0  0  0  0  0
   -1.3125   -0.1042    0.0000 C   0  0  0  0  0  0  0  0  0  0  0  0
   -1.3125   -0.6292    0.0000 C   0  0  0  0  0  0  0  0  0  0  0  0
   -0.1958    2.0208    0.0000 C   0  0  0  0  0  0  0  0  0  0  0  0
   -1.0333    2.2958    0.0000 C   0  0  0  0  0  0  0  0  0  0  0  0
   -0.5333    2.4125    0.0000 C   0  0  0  0  0  0  0  0  0  0  0  0
   -0.6500    0.5500    0.0000 C   0  0  0  0  0  0  0  0  0  0  0  0
   -0.8500    1.4333    0.0000 C   0  0  0  0  0  0  0  0  0  0  0  0
   -0.3500    1.5333    0.0000 C   0  0  0  0  0  0  0  0  0  0  0  0
   -1.1958    1.7958    0.0000 C   0  0  0  0  0  0  0  0  0  0  0  0
   -1.0125    0.9500    0.0000 C   0  0  0  0  0  0  0  0  0  0  0  0
   -0.6500   -1.2875    0.0000 C   0  0  0  0  0  0  0  0  0  0  0  0
   -0.0125   -0.3667    0.0000 N   0  0  0  0  0  0  0  0  0  0  0  0
   -1.3958    2.6708    0.0000 C   0  0  3  0  0  0  0  0  0  0  0  0
    0.3292    2.0958    0.0000 C   0  0  3  0  0  0  0  0  0  0  0  0
   -0.8500   -2.1667    0.0000 N   0  0  3  0  0  0  0  0  0  0  0  0
   -1.5125    0.8333    0.0000 O   0  0  0  0  0  0  0  0  0  0  0  0
   -1.0125   -1.6875    0.0000 C   0  0  0  0  0  0  0  0  0  0  0  0
   -0.5333   -3.1292    0.0000 O   0  0  0  0  0  0  0  0  0  0  0  0
   -0.3958    2.9125    0.0000 O   0  0  0  0  0  0  0  0  0  0  0  0
   -1.7708    0.1500    0.0000 C   0  0  0  0  0  0  0  0  0  0  0  0
   -1.7708   -0.8875    0.0000 C   0  0  0  0  0  0  0  0  0  0  0  0
   -0.3500   -2.2875    0.0000 C   0  0  0  0  0  0  0  0  0  0  0  0
   -1.1958   -2.5500    0.0000 C   0  0  0  0  0  0  0  0  0  0  0  0
   -1.7708    2.3333    0.0000 C   0  0  0  0  0  0  0  0  0  0  0  0
   -1.7500    3.0500    0.0000 C   0  0  0  0  0  0  0  0  0  0  0  0
   -1.0125    3.0333    0.0000 C   0  0  0  0  0  0  0  0  0  0  0  0
    0.4042    1.5708    0.0000 C   0  0  0  0  0  0  0  0  0  0  0  0
    0.2500    2.6125    0.0000 C   0  0  0  0  0  0  0  0  0  0  0  0
    0.8500    2.1708    0.0000 C   0  0  0  0  0  0  0  0  0  0  0  0
   -1.0333   -3.0292    0.0000 C   0  0  0  0  0  0  0  0  0  0  0  0
   -0.1958   -2.7667    0.0000 C   0  0  0  0  0  0  0  0  0  0  0  0
   -2.2125   -0.1042    0.0000 C   0  0  0  0  0  0  0  0  0  0  0  0
   -2.2125   -0.6500    0.0000 C   0  0  0  0  0  0  0  0  0  0  0  0
    1.7042   -0.2875    0.0000 Br  0  0  0  0  0  0  0  0  0  0  0  0
  2  1  1  0  0  0  0
  3  2  1  0  0  0  0
  4  1  1  0  0  0  0
  5  4  2  0  0  0  0
  6 11  2  0  0  0  0
  7 12  1  0  0  0  0
  8  7  2  0  0  0  0
  9  1  1  0  0  0  0
 10 13  1  0  0  0  0
 11 10  1  0  0  0  0
 12 10  2  0  0  0  0
 13  9  1  0  0  0  0
 14  3  1  0  0  0  0
 15  2  2  0  0  0  0
 16  7  1  0  0  0  0
 17  6  1  0  0  0  0
 18 20  1  0  0  0  0
 19 13  2  0  0  0  0
 20 14  1  0  0  0  0
 21 33  1  0  0  0  0
 22  8  1  0  0  0  0
 23  4  1  0  0  0  0
 24  5  1  0  0  0  0
 25 18  1  0  0  0  0
 26 18  1  0  0  0  0
 27 16  1  0  0  0  0
 28 16  1  0  0  0  0
 29 16  1  0  0  0  0
 30 17  1  0  0  0  0
 31 17  1  0  0  0  0
 32 17  1  0  0  0  0
 33 26  1  0  0  0  0
 34 25  1  0  0  0  0
 35 23  2  0  0  0  0
 36 35  1  0  0  0  0
  3  5  1  0  0  0  0
 36 24  2  0  0  0  0
  8  6  1  0  0  0  0
 34 21  1  0  0  0  0
M  END
> <#>
1210

> <PLATE>
LAT016

> <ROW>
B

> <COL>
3

> <COORD>
B03

> <LATID>
LAT016B03

> <Supplier>
Chembridge

> <Suplier_CAT#>
5655132

> <Name>
Novel

> <Concentration_(mM)>
2.5

> <IC50_(µM)>
>100

> <Yeast_Active?>
-

> <Pubchem_CID>
1047179

$$$$
