
  -ISIS-  08130814242D

 29 33  0  0  0  0  0  0  0  0999 V2000
   -1.6958    0.5333    0.0000 C   0  0  0  0  0  0  0  0  0  0  0  0
   -2.4333    0.1125    0.0000 C   0  0  0  0  0  0  0  0  0  0  0  0
   -0.9833   -0.7375    0.0000 N   0  0  0  0  0  0  0  0  0  0  0  0
   -0.9625    0.1000    0.0000 C   0  0  3  0  0  0  0  0  0  0  0  0
   -2.4208   -0.7375    0.0000 C   0  0  0  0  0  0  0  0  0  0  0  0
   -1.7208   -1.1542    0.0000 C   0  0  0  0  0  0  0  0  0  0  0  0
   -1.7000    1.3708    0.0000 C   0  0  0  0  0  0  0  0  0  0  0  0
   -3.1708   -1.1542    0.0000 C   0  0  0  0  0  0  0  0  0  0  0  0
    1.8875    1.8208    0.0000 C   0  0  0  0  0  0  0  0  0  0  0  0
   -0.2333    0.5125    0.0000 C   0  0  0  0  0  0  0  0  0  0  0  0
    1.1875    1.3708    0.0000 C   0  0  0  0  0  0  0  0  0  0  0  0
   -3.1708   -1.9875    0.0000 C   0  0  0  0  0  0  0  0  0  0  0  0
   -1.7208   -2.0042    0.0000 C   0  0  0  0  0  0  0  0  0  0  0  0
   -3.9208   -2.4167    0.0000 N   0  0  0  0  0  0  0  0  0  0  0  0
    2.6167    1.4333    0.0000 O   0  0  0  0  0  0  0  0  0  0  0  0
   -0.9708    1.7958    0.0000 O   0  0  0  0  0  0  0  0  0  0  0  0
   -0.2500    1.3208    0.0000 C   0  0  0  0  0  0  0  0  0  0  0  0
    0.5042    0.1000    0.0000 C   0  0  0  0  0  0  0  0  0  0  0  0
    0.4792    1.7708    0.0000 C   0  0  0  0  0  0  0  0  0  0  0  0
    1.2042    0.5333    0.0000 C   0  0  0  0  0  0  0  0  0  0  0  0
   -2.4500   -2.4292    0.0000 C   0  0  0  0  0  0  0  0  0  0  0  0
   -3.1625    0.5458    0.0000 C   0  0  0  0  0  0  0  0  0  0  0  0
    1.8542    2.6500    0.0000 O   0  0  0  0  0  0  0  0  0  0  0  0
   -2.4333    1.8000    0.0000 C   0  0  0  0  0  0  0  0  0  0  0  0
   -3.1625    1.3958    0.0000 C   0  0  0  0  0  0  0  0  0  0  0  0
   -3.8958   -0.7167    0.0000 C   0  0  0  0  0  0  0  0  0  0  0  0
   -4.6333   -1.9875    0.0000 C   0  0  0  0  0  0  0  0  0  0  0  0
    1.1292    3.0333    0.0000 C   0  0  0  0  0  0  0  0  0  0  0  0
   -4.6333   -1.1375    0.0000 C   0  0  0  0  0  0  0  0  0  0  0  0
  2  1  2  0  0  0  0
  3  4  1  0  0  0  0
  4  1  1  0  0  0  0
  5  2  1  0  0  0  0
  6  3  1  0  0  0  0
  7  1  1  0  0  0  0
  8  5  1  0  0  0  0
  9 11  1  0  0  0  0
 10  4  1  0  0  0  0
 11 20  2  0  0  0  0
 12  8  2  0  0  0  0
 13  6  1  0  0  0  0
 14 12  1  0  0  0  0
 15  9  2  0  0  0  0
 16  7  2  0  0  0  0
 17 10  1  0  0  0  0
 18 10  2  0  0  0  0
 19 17  2  0  0  0  0
 20 18  1  0  0  0  0
 21 13  2  0  0  0  0
 22  2  1  0  0  0  0
 23  9  1  0  0  0  0
 24  7  1  0  0  0  0
 25 24  1  0  0  0  0
 26  8  1  0  0  0  0
 27 29  1  0  0  0  0
 28 23  1  0  0  0  0
 29 26  2  0  0  0  0
 25 22  1  0  0  0  0
  5  6  2  0  0  0  0
 11 19  1  0  0  0  0
 21 12  1  0  0  0  0
 27 14  2  0  0  0  0
M  END
> <#>
1970

> <PLATE>
LAT025

> <ROW>
B

> <COL>
8

> <COORD>
B08

> <LATID>
LAT025B08

> <Supplier>
Chembridge

> <Suplier_CAT#>
6102776

> <Concentration_(mM)>
2.5

> <IC50_(µM)>
inactive

> <Yeast_Active?>
-

> <Pubchem_CID>
1129921

$$$$
