
  -ISIS-  08130814242D

 25 27  0  0  0  0  0  0  0  0999 V2000
   -0.1625   -1.3792    0.0000 C   0  0  0  0  0  0  0  0  0  0  0  0
    0.4292   -1.6875    0.0000 C   0  0  0  0  0  0  0  0  0  0  0  0
    0.9000   -1.2292    0.0000 O   0  0  0  0  0  0  0  0  0  0  0  0
    0.6292   -0.6292    0.0000 C   0  0  3  0  0  0  0  0  0  0  0  0
   -0.0458   -0.7042    0.0000 C   0  0  0  0  0  0  0  0  0  0  0  0
   -0.7958   -1.5875    0.0000 C   0  0  0  0  0  0  0  0  0  0  0  0
    0.9542   -0.0292    0.0000 C   0  0  0  0  0  0  0  0  0  0  0  0
    1.6292   -0.0292    0.0000 C   0  0  0  0  0  0  0  0  0  0  0  0
    1.9292    0.5708    0.0000 C   0  0  0  0  0  0  0  0  0  0  0  0
   -0.5458   -0.2875    0.0000 C   0  0  0  0  0  0  0  0  0  0  0  0
    2.9167    1.1833    0.0000 C   0  0  0  0  0  0  0  0  0  0  0  0
    2.6042    0.5708    0.0000 C   0  0  0  0  0  0  0  0  0  0  0  0
    0.5042   -2.3500    0.0000 O   0  0  0  0  0  0  0  0  0  0  0  0
   -1.2958   -1.1667    0.0000 C   0  0  0  0  0  0  0  0  0  0  0  0
    2.5667    1.7333    0.0000 C   0  0  0  0  0  0  0  0  0  0  0  0
    1.9875   -0.6042    0.0000 O   0  0  0  0  0  0  0  0  0  0  0  0
   -1.1625   -0.5000    0.0000 C   0  0  0  0  0  0  0  0  0  0  0  0
    1.5875    1.1458    0.0000 C   0  0  0  0  0  0  0  0  0  0  0  0
    1.9000    1.7333    0.0000 C   0  0  0  0  0  0  0  0  0  0  0  0
    3.6542    1.1958    0.0000 I   0  0  0  0  0  0  0  0  0  0  0  0
   -0.9333   -2.2542    0.0000 O   0  0  0  0  0  0  0  0  0  0  0  0
    2.9875    2.4625    0.0000 O   0  0  0  0  0  0  0  0  0  0  0  0
   -1.9500   -1.3875    0.0000 O   0  0  0  0  0  0  0  0  0  0  0  0
   -0.4333   -2.7292    0.0000 C   0  0  0  0  0  0  0  0  0  0  0  0
   -2.4500   -0.9167    0.0000 C   0  0  0  0  0  0  0  0  0  0  0  0
  2  1  1  0  0  0  0
  3  2  1  0  0  0  0
  4  5  1  0  0  0  0
  5  1  2  0  0  0  0
  6  1  1  0  0  0  0
  7  4  1  0  0  0  0
  8  7  1  0  0  0  0
  9  8  1  0  0  0  0
 10  5  1  0  0  0  0
 11 12  1  0  0  0  0
 12  9  2  0  0  0  0
 13  2  2  0  0  0  0
 14  6  2  0  0  0  0
 15 19  1  0  0  0  0
 16  8  2  0  0  0  0
 17 14  1  0  0  0  0
 18  9  1  0  0  0  0
 19 18  2  0  0  0  0
 20 11  1  0  0  0  0
 21  6  1  0  0  0  0
 22 15  1  0  0  0  0
 23 14  1  0  0  0  0
 24 21  1  0  0  0  0
 25 23  1  0  0  0  0
  4  3  1  0  0  0  0
 17 10  2  0  0  0  0
 11 15  2  0  0  0  0
M  END
> <#>
1221

> <PLATE>
LAT016

> <ROW>
E

> <COL>
4

> <COORD>
E04

> <LATID>
LAT016E04

> <Supplier>
Chembridge

> <Suplier_CAT#>
5974972

> <Name>
Novel

> <Concentration_(mM)>
2.5

> <IC50_(µM)>
>100

> <Yeast_Active?>
-

> <Pubchem_CID>
1123678

$$$$
