
  -ISIS-  08130814242D

 15 16  0  0  0  0  0  0  0  0999 V2000
    1.7375   -0.5167    0.0000 N   0  0  0  0  0  0  0  0  0  0  0  0
    1.7375   -2.2542    0.0000 N   0  0  0  0  0  0  0  0  0  0  0  0
    2.5167   -1.8292    0.0000 C   0  0  0  0  0  0  0  0  0  0  0  0
    2.5167   -0.9542    0.0000 N   0  0  0  0  0  0  0  0  0  0  0  0
    0.2375    2.1125    0.0000 N   0  0  0  0  0  0  0  0  0  0  0  0
    1.7375    0.3500    0.0000 C   0  0  0  0  0  0  0  0  0  0  0  0
    0.9875    0.8125    0.0000 C   0  0  0  0  0  0  0  0  0  0  0  0
    0.9875    1.6833    0.0000 C   0  0  0  0  0  0  0  0  0  0  0  0
    1.7375   -3.1292    0.0000 C   0  0  0  0  0  0  0  0  0  0  0  0
   -0.5208    1.6833    0.0000 C   0  0  0  0  0  0  0  0  0  0  0  0
    3.2667   -2.2542    0.0000 C   0  0  0  0  0  0  0  0  0  0  0  0
    0.2375    0.3708    0.0000 C   0  0  0  0  0  0  0  0  0  0  0  0
   -0.5208    0.8125    0.0000 C   0  0  0  0  0  0  0  0  0  0  0  0
    2.5167   -3.5667    0.0000 C   0  0  0  0  0  0  0  0  0  0  0  0
    3.2667   -3.1292    0.0000 C   0  0  0  0  0  0  0  0  0  0  0  0
  2  3  2  0  0  0  0
  3  4  1  0  0  0  0
  4  1  1  0  0  0  0
  5  8  1  0  0  0  0
  6  1  2  0  0  0  0
  7  6  1  0  0  0  0
  8  7  2  0  0  0  0
  9  2  1  0  0  0  0
 10 13  1  0  0  0  0
 11  3  1  0  0  0  0
 12  7  1  0  0  0  0
 13 12  2  0  0  0  0
 14 15  1  0  0  0  0
 15 11  2  0  0  0  0
  5 10  2  0  0  0  0
 14  9  2  0  0  0  0
M  END
> <#>
1631

> <PLATE>
LAT021

> <ROW>
G

> <COL>
5

> <COORD>
G05

> <LATID>
LAT021G05

> <Supplier>
Chembridge

> <Suplier_CAT#>
5111103

> <Name>
Novel

> <Concentration_(mM)>
2.5

> <IC50_(µM)>
>100

> <Yeast_Active?>
-

> <Pubchem_CID>
227124

$$$$
