
  -ISIS-  08130814242D

 21 23  0  0  0  0  0  0  0  0999 V2000
    3.0042   -2.9542    0.0000 N   0  0  0  0  0  0  0  0  0  0  0  0
    3.4542   -2.3417    0.0000 C   0  0  0  0  0  0  0  0  0  0  0  0
    3.0042   -1.7375    0.0000 O   0  0  0  0  0  0  0  0  0  0  0  0
    2.2917   -2.7250    0.0000 C   0  0  0  0  0  0  0  0  0  0  0  0
    2.2917   -1.9667    0.0000 C   0  0  0  0  0  0  0  0  0  0  0  0
    4.2042   -2.3417    0.0000 C   0  0  0  0  0  0  0  0  0  0  0  0
    6.4542   -1.0417    0.0000 C   0  0  0  0  0  0  0  0  0  0  0  0
    5.7042   -1.0417    0.0000 N   0  0  0  0  0  0  0  0  0  0  0  0
    1.6375   -3.1000    0.0000 C   0  0  0  0  0  0  0  0  0  0  0  0
    4.5792   -1.6917    0.0000 C   0  0  0  0  0  0  0  0  0  0  0  0
    5.3292   -1.6917    0.0000 C   0  0  0  0  0  0  0  0  0  0  0  0
    6.8292   -1.6917    0.0000 O   0  0  0  0  0  0  0  0  0  0  0  0
    1.6375   -1.5917    0.0000 C   0  0  0  0  0  0  0  0  0  0  0  0
    0.9917   -2.7250    0.0000 C   0  0  0  0  0  0  0  0  0  0  0  0
    0.9917   -1.9667    0.0000 C   0  0  0  0  0  0  0  0  0  0  0  0
    4.5792   -2.9917    0.0000 C   0  0  0  0  0  0  0  0  0  0  0  0
    5.3292   -2.9917    0.0000 C   0  0  0  0  0  0  0  0  0  0  0  0
    6.8292   -0.3917    0.0000 C   0  0  0  0  0  0  0  0  0  0  0  0
    5.7042   -2.3417    0.0000 C   0  0  0  0  0  0  0  0  0  0  0  0
    0.3417   -3.1000    0.0000 C   0  0  0  0  0  0  0  0  0  0  0  0
   -0.3083   -2.7250    0.0000 C   0  0  0  0  0  0  0  0  0  0  0  0
  2  1  2  0  0  0  0
  3  2  1  0  0  0  0
  4  1  1  0  0  0  0
  5  4  2  0  0  0  0
  6  2  1  0  0  0  0
  7  8  1  0  0  0  0
  8 11  1  0  0  0  0
  9  4  1  0  0  0  0
 10  6  2  0  0  0  0
 11 10  1  0  0  0  0
 12  7  2  0  0  0  0
 13  5  1  0  0  0  0
 14  9  2  0  0  0  0
 15 14  1  0  0  0  0
 16  6  1  0  0  0  0
 17 16  2  0  0  0  0
 18  7  1  0  0  0  0
 19 17  1  0  0  0  0
 20 14  1  0  0  0  0
 21 20  1  0  0  0  0
  5  3  1  0  0  0  0
 15 13  2  0  0  0  0
 11 19  2  0  0  0  0
M  END
> <#>
1860

> <PLATE>
LAT024

> <ROW>
D

> <COL>
4

> <COORD>
D04

> <LATID>
LAT024D04

> <Supplier>
Chembridge

> <Suplier_CAT#>
5769296

> <Name>
Novel

> <Sec_Name>
243_B04

> <Concentration_(mM)>
2.5

> <IC50_(µM)>
16

> <Yeast_Active?>
-

> <Pubchem_CID>
869816

$$$$
