
  -ISIS-  08130814242D

 19 20  0  0  0  0  0  0  0  0999 V2000
    3.5750   -2.7417    0.0000 S   0  0  3  0  0  0  0  0  0  0  0  0
    3.8000   -2.0292    0.0000 N   0  0  0  0  0  0  0  0  0  0  0  0
    3.3000   -1.4792    0.0000 C   0  0  0  0  0  0  0  0  0  0  0  0
    3.5167   -0.7750    0.0000 C   0  0  0  0  0  0  0  0  0  0  0  0
    3.0167   -0.2167    0.0000 C   0  0  0  0  0  0  0  0  0  0  0  0
    4.3625   -2.8042    0.0000 O   0  0  0  0  0  0  0  0  0  0  0  0
    2.9542   -2.5542    0.0000 O   0  0  0  0  0  0  0  0  0  0  0  0
    3.5750   -3.4917    0.0000 C   0  0  0  0  0  0  0  0  0  0  0  0
    2.2917   -0.3875    0.0000 C   0  0  0  0  0  0  0  0  0  0  0  0
    2.5667   -1.6417    0.0000 C   0  0  0  0  0  0  0  0  0  0  0  0
    2.0667   -1.0917    0.0000 C   0  0  0  0  0  0  0  0  0  0  0  0
    1.7917    0.1625    0.0000 Br  0  0  0  0  0  0  0  0  0  0  0  0
    4.2417   -0.6167    0.0000 C   0  0  0  0  0  0  0  0  0  0  0  0
    3.2417    0.4833    0.0000 C   0  0  0  0  0  0  0  0  0  0  0  0
    2.9292   -3.8667    0.0000 C   0  0  0  0  0  0  0  0  0  0  0  0
    4.2292   -3.8667    0.0000 C   0  0  0  0  0  0  0  0  0  0  0  0
    4.2292   -4.6250    0.0000 C   0  0  0  0  0  0  0  0  0  0  0  0
    2.9292   -4.6250    0.0000 C   0  0  0  0  0  0  0  0  0  0  0  0
    3.5750   -5.0000    0.0000 C   0  0  0  0  0  0  0  0  0  0  0  0
  2  1  1  0  0  0  0
  3  2  1  0  0  0  0
  4  3  1  0  0  0  0
  5  4  2  0  0  0  0
  6  1  2  0  0  0  0
  7  1  2  0  0  0  0
  8  1  1  0  0  0  0
  9 11  2  0  0  0  0
 10  3  2  0  0  0  0
 11 10  1  0  0  0  0
 12  9  1  0  0  0  0
 13  4  1  0  0  0  0
 14  5  1  0  0  0  0
 15  8  2  0  0  0  0
 16  8  1  0  0  0  0
 17 16  2  0  0  0  0
 18 15  1  0  0  0  0
 19 17  1  0  0  0  0
 18 19  2  0  0  0  0
  5  9  1  0  0  0  0
M  END
> <#>
1095

> <PLATE>
LAT014

> <ROW>
G

> <COL>
8

> <COORD>
G08

> <LATID>
LAT014G08

> <Supplier>
Chembridge

> <Suplier_CAT#>
7799730

> <Name>
Novel

> <Concentration_(mM)>
2.5

> <IC50_(µM)>
20

> <Yeast_Active?>
-

> <Pubchem_CID>
970458

$$$$
