
  -ISIS-  08130814242D

 18 19  0  0  0  0  0  0  0  0999 V2000
    3.3417   -0.6542    0.0000 C   0  0  0  0  0  0  0  0  0  0  0  0
    4.1542   -1.2417    0.0000 N   0  0  0  0  0  0  0  0  0  0  0  0
    4.8417   -1.2417    0.0000 C   0  0  0  0  0  0  0  0  0  0  0  0
    2.6750   -0.9917    0.0000 N   0  0  0  0  0  0  0  0  0  0  0  0
    0.7500   -0.5125    0.0000 N   0  0  0  0  0  0  0  0  0  0  0  0
    3.3417    0.3125    0.0000 O   0  0  0  0  0  0  0  0  0  0  0  0
    5.2625   -1.9625    0.0000 C   0  0  0  0  0  0  0  0  0  0  0  0
    1.3792   -0.9250    0.0000 C   0  0  0  0  0  0  0  0  0  0  0  0
    2.0417   -0.5792    0.0000 C   0  0  0  0  0  0  0  0  0  0  0  0
    4.8917   -2.6125    0.0000 Cl  0  0  0  0  0  0  0  0  0  0  0  0
    5.2542   -0.5167    0.0000 C   0  0  0  0  0  0  0  0  0  0  0  0
    0.0792   -0.8542    0.0000 C   0  0  0  0  0  0  0  0  0  0  0  0
    6.0917   -1.9542    0.0000 C   0  0  0  0  0  0  0  0  0  0  0  0
    1.3375   -1.6667    0.0000 C   0  0  0  0  0  0  0  0  0  0  0  0
    0.0417   -1.6042    0.0000 C   0  0  0  0  0  0  0  0  0  0  0  0
    6.0875   -0.5167    0.0000 C   0  0  0  0  0  0  0  0  0  0  0  0
    6.5042   -1.2292    0.0000 C   0  0  0  0  0  0  0  0  0  0  0  0
    0.6667   -2.0125    0.0000 C   0  0  0  0  0  0  0  0  0  0  0  0
  2  1  1  0  0  0  0
  3  2  1  0  0  0  0
  4  1  1  0  0  0  0
  5  8  1  0  0  0  0
  6  1  2  0  0  0  0
  7  3  1  0  0  0  0
  8  9  1  0  0  0  0
  9  4  1  0  0  0  0
 10  7  1  0  0  0  0
 11  3  2  0  0  0  0
 12  5  2  0  0  0  0
 13  7  2  0  0  0  0
 14  8  2  0  0  0  0
 15 18  2  0  0  0  0
 16 11  1  0  0  0  0
 17 16  2  0  0  0  0
 18 14  1  0  0  0  0
 17 13  1  0  0  0  0
 15 12  1  0  0  0  0
M  END
> <#>
1469

> <PLATE>
LAT019

> <ROW>
E

> <COL>
5

> <COORD>
E05

> <LATID>
LAT019E05

> <Supplier>
Chembridge

> <Suplier_CAT#>
7632946

> <Name>
Novel

> <Concentration_(mM)>
2.5

> <IC50_(µM)>
inactive

> <Yeast_Active?>
-

> <Pubchem_CID>
894930

$$$$
