
  -ISIS-  08130814242D

 27 29  0  0  0  0  0  0  0  0999 V2000
   -1.9500    1.6125    0.0000 S   0  0  3  0  0  0  0  0  0  0  0  0
   -4.1708    1.5958    0.0000 N   0  3  0  0  0  0  0  0  0  0  0  0
   -1.9458    1.0625    0.0000 O   0  0  0  0  0  0  0  0  0  0  0  0
   -2.5000    1.6125    0.0000 C   0  0  0  0  0  0  0  0  0  0  0  0
    0.0500    0.0708    0.0000 C   0  0  0  0  0  0  0  0  0  0  0  0
   -3.6208    1.5958    0.0000 C   0  0  0  0  0  0  0  0  0  0  0  0
   -1.3625    1.6458    0.0000 O   0  0  0  0  0  0  0  0  0  0  0  0
   -1.9708    2.1500    0.0000 O   0  0  0  0  0  0  0  0  0  0  0  0
   -4.4958    2.0625    0.0000 O   0  5  0  0  0  0  0  0  0  0  0  0
   -4.5000    1.1333    0.0000 O   0  0  0  0  0  0  0  0  0  0  0  0
   -0.4625    0.2958    0.0000 C   0  0  0  0  0  0  0  0  0  0  0  0
    0.1292   -0.4792    0.0000 O   0  0  0  0  0  0  0  0  0  0  0  0
    0.4792    0.4000    0.0000 C   0  0  0  0  0  0  0  0  0  0  0  0
   -2.7625    1.1125    0.0000 C   0  0  0  0  0  0  0  0  0  0  0  0
   -2.7958    2.0833    0.0000 C   0  0  0  0  0  0  0  0  0  0  0  0
   -3.3500    2.0833    0.0000 C   0  0  0  0  0  0  0  0  0  0  0  0
   -3.3458    1.1000    0.0000 C   0  0  0  0  0  0  0  0  0  0  0  0
   -0.5000    0.8208    0.0000 C   0  0  0  0  0  0  0  0  0  0  0  0
   -0.9458   -0.0042    0.0000 C   0  0  0  0  0  0  0  0  0  0  0  0
   -1.4500    0.7958    0.0000 C   0  0  0  0  0  0  0  0  0  0  0  0
   -0.9958    1.0708    0.0000 C   0  0  0  0  0  0  0  0  0  0  0  0
   -1.4333    0.2333    0.0000 C   0  0  0  0  0  0  0  0  0  0  0  0
    1.0000    0.1958    0.0000 C   0  0  0  0  0  0  0  0  0  0  0  0
    0.4042    0.9500    0.0000 C   0  0  0  0  0  0  0  0  0  0  0  0
    0.8375    1.2958    0.0000 C   0  0  0  0  0  0  0  0  0  0  0  0
    1.4500    0.5208    0.0000 C   0  0  0  0  0  0  0  0  0  0  0  0
    1.3667    1.0708    0.0000 C   0  0  0  0  0  0  0  0  0  0  0  0
  2  6  1  0  0  0  0
  3  1  1  0  0  0  0
  4  1  1  0  0  0  0
  5 11  1  0  0  0  0
  6 16  2  0  0  0  0
  7  1  2  0  0  0  0
  8  1  2  0  0  0  0
  9  2  1  0  0  0  0
 10  2  2  0  0  0  0
 11 19  1  0  0  0  0
 12  5  2  0  0  0  0
 13  5  1  0  0  0  0
 14  4  1  0  0  0  0
 15  4  2  0  0  0  0
 16 15  1  0  0  0  0
 17 14  2  0  0  0  0
 18 21  1  0  0  0  0
 19 22  2  0  0  0  0
 20  3  1  0  0  0  0
 21 20  2  0  0  0  0
 22 20  1  0  0  0  0
 23 13  2  0  0  0  0
 24 13  1  0  0  0  0
 25 24  2  0  0  0  0
 26 23  1  0  0  0  0
 27 25  1  0  0  0  0
 17  6  1  0  0  0  0
 11 18  2  0  0  0  0
 26 27  2  0  0  0  0
M  CHG  2   2   1   9  -1
M  END
> <#>
1181

> <PLATE>
LAT015

> <ROW>
E

> <COL>
9

> <COORD>
E09

> <LATID>
LAT015E09

> <Supplier>
Chembridge

> <Suplier_CAT#>
5162391

> <Name>
Novel

> <Concentration_(mM)>
2.5

> <IC50_(µM)>
inactive

> <Yeast_Active?>
+

> <Pubchem_CID>
1619357

$$$$
