
  -ISIS-  08130814242D

 26 28  0  0  0  0  0  0  0  0999 V2000
    4.7909   -1.9336    0.0000 C   0  0  0  0  0  0  0  0  0  0  0  0
    4.0764   -1.5210    0.0000 C   0  0  0  0  0  0  0  0  0  0  0  0
    3.3639   -1.9335    0.0000 C   0  0  0  0  0  0  0  0  0  0  0  0
    3.3647   -2.7583    0.0000 C   0  0  0  0  0  0  0  0  0  0  0  0
    4.0840   -3.1690    0.0000 C   0  0  0  0  0  0  0  0  0  0  0  0
    4.7935   -2.7543    0.0000 C   0  0  0  0  0  0  0  0  0  0  0  0
    6.9416   -3.1796    0.0000 C   0  0  0  0  0  0  0  0  0  0  0  0
    6.9416   -4.0087    0.0000 C   0  0  0  0  0  0  0  0  0  0  0  0
    7.7302   -4.2650    0.0000 N   0  0  3  0  0  0  0  0  0  0  0  0
    8.2177   -3.5942    0.0000 C   0  0  0  0  0  0  0  0  0  0  0  0
    7.7302   -2.9234    0.0000 N   0  0  0  0  0  0  0  0  0  0  0  0
    5.5152   -3.1791    0.0000 N   0  0  0  0  0  0  0  0  0  0  0  0
    5.5141   -4.0065    0.0000 C   0  0  0  0  0  0  0  0  0  0  0  0
    6.2289   -4.4194    0.0000 N   0  0  0  0  0  0  0  0  0  0  0  0
    6.2271   -2.7664    0.0000 C   0  0  0  0  0  0  0  0  0  0  0  0
    7.9851   -5.0496    0.0000 C   0  0  3  0  0  0  0  0  0  0  0  0
    7.4331   -5.6627    0.0000 C   0  0  0  0  0  0  0  0  0  0  0  0
    8.7921   -5.2212    0.0000 C   0  0  0  0  0  0  0  0  0  0  0  0
    6.2266   -1.9414    0.0000 N   0  0  0  0  0  0  0  0  0  0  0  0
    5.5083   -1.5250    0.0000 C   0  0  0  0  0  0  0  0  0  0  0  0
    4.7993   -4.4184    0.0000 N   0  0  0  0  0  0  0  0  0  0  0  0
    3.9708   -4.4125    0.0000 C   0  0  1  0  0  0  0  0  0  0  0  0
    3.5542   -5.1250    0.0000 C   0  0  0  0  0  0  0  0  0  0  0  0
    2.7292   -5.1208    0.0000 O   0  0  0  0  0  0  0  0  0  0  0  0
    3.5542   -3.6958    0.0000 C   0  0  0  0  0  0  0  0  0  0  0  0
    2.7292   -3.6958    0.0000 C   0  0  0  0  0  0  0  0  0  0  0  0
  7  8  2  0  0  0  0
 13 14  2  0  0  0  0
 14  8  1  0  0  0  0
  1  2  2  0  0  0  0
  7 15  1  0  0  0  0
 15 12  2  0  0  0  0
  3  4  2  0  0  0  0
  9 16  1  0  0  0  0
 16 17  1  0  0  0  0
  4  5  1  0  0  0  0
 16 18  1  0  0  0  0
  2  3  1  0  0  0  0
 15 19  1  0  0  0  0
  8  9  1  0  0  0  0
 19 20  1  0  0  0  0
 20  1  1  0  0  0  0
  9 10  1  0  0  0  0
 13 21  1  0  0  0  0
 10 11  2  0  0  0  0
 21 22  1  0  0  0  0
 11  7  1  0  0  0  0
 22 23  1  6  0  0  0
  5  6  2  0  0  0  0
 23 24  1  0  0  0  0
  6  1  1  0  0  0  0
 22 25  1  1  0  0  0
 12 13  1  0  0  0  0
 25 26  1  0  0  0  0
M  END
> <#>
269

> <PLATE>
LAT004

> <ROW>
E

> <COL>
5

> <COORD>
E05

> <LATID>
LAT004E05

> <Supplier>
Sigma

> <Suplier_CAT#>
R 7772

> <Name>
Roscovitine

> <Concentration_(mM)>
2.5

> <IC50_(µM)>
0.32

> <Yeast_Active?>
-

> <Pubchem_CID>
5097

> <Description>
Potent, selective inhibitor of cyclin-dependent kinases (CDKs)

$$$$
