
  -ISIS-  08130814242D

 13 13  0  0  0  0  0  0  0  0999 V2000
    6.7335   -4.3214    0.0000 N   0  0  0  0  0  0  0  0  0  0  0  0
    6.7359   -3.4991    0.0000 C   0  0  1  0  0  0  0  0  0  0  0  0
    6.1028   -2.9567    0.0000 C   0  0  0  0  0  0  0  0  0  0  0  0
    7.5357   -2.4675    0.0000 O   0  0  0  0  0  0  0  0  0  0  0  0
    7.5211   -3.2190    0.0000 C   0  0  0  0  0  0  0  0  0  0  0  0
    5.3858   -3.3726    0.0000 C   0  0  0  0  0  0  0  0  0  0  0  0
    5.3858   -4.2041    0.0000 C   0  0  0  0  0  0  0  0  0  0  0  0
    4.6646   -4.6200    0.0000 C   0  0  0  0  0  0  0  0  0  0  0  0
    3.9434   -4.2041    0.0000 C   0  0  0  0  0  0  0  0  0  0  0  0
    3.9434   -3.3726    0.0000 C   0  0  0  0  0  0  0  0  0  0  0  0
    4.6646   -2.9566    0.0000 C   0  0  0  0  0  0  0  0  0  0  0  0
    3.2250   -4.6083    0.0000 F   0  0  0  0  0  0  0  0  0  0  0  0
    8.2333   -3.6292    0.0000 O   0  0  0  0  0  0  0  0  0  0  0  0
  4  5  2  0  0  0  0
  5  2  1  0  0  0  0
  2  1  1  0  0  0  0
  6  7  1  0  0  0  0
  7  8  2  0  0  0  0
  8  9  1  0  0  0  0
  9 10  2  0  0  0  0
 10 11  1  0  0  0  0
 11  6  2  0  0  0  0
  3  6  1  0  0  0  0
  9 12  1  0  0  0  0
  2  3  1  1  0  0  0
  5 13  1  0  0  0  0
M  END
> <#>
230

> <PLATE>
LAT003

> <ROW>
F

> <COL>
10

> <COORD>
F10

> <LATID>
LAT003F10

> <Supplier>
Sigma

> <Suplier_CAT#>
F 4646

> <Name>
P-Fluoro-L-Phenylalanine

> <Concentration_(mM)>
2.5

> <IC50_(µM)>
23

> <Yeast_Active?>
-

> <Pubchem_CID>
4654

> <Description>
Substrate for tyrosine hydroxylase; arrests cells at G2 

$$$$
