
  -ISIS-  08130814242D

 17 18  0  0  0  0  0  0  0  0999 V2000
   -1.1125    0.2833    0.0000 C   0  0  0  0  0  0  0  0  0  0  0  0
   -1.9208   -0.1792    0.0000 N   0  0  0  0  0  0  0  0  0  0  0  0
   -2.7333    0.2833    0.0000 C   0  0  0  0  0  0  0  0  0  0  0  0
   -2.7333    1.2208    0.0000 N   0  0  0  0  0  0  0  0  0  0  0  0
   -1.1125    1.2208    0.0000 C   0  0  0  0  0  0  0  0  0  0  0  0
   -1.9208    1.6958    0.0000 C   0  0  0  0  0  0  0  0  0  0  0  0
   -0.3000   -0.1792    0.0000 N   0  0  0  0  0  0  0  0  0  0  0  0
    2.1292    0.2625    0.0000 C   0  0  0  0  0  0  0  0  0  0  0  0
    1.3042   -0.2000    0.0000 C   0  0  0  0  0  0  0  0  0  0  0  0
    0.5000    0.2708    0.0000 C   0  0  0  0  0  0  0  0  0  0  0  0
   -3.5458   -0.1542    0.0000 O   0  0  0  0  0  0  0  0  0  0  0  0
    2.1500    1.2000    0.0000 C   0  0  0  0  0  0  0  0  0  0  0  0
   -1.9208    2.6333    0.0000 O   0  0  0  0  0  0  0  0  0  0  0  0
    1.3292    1.6833    0.0000 C   0  0  0  0  0  0  0  0  0  0  0  0
    2.9292   -0.2042    0.0000 Cl  0  0  0  0  0  0  0  0  0  0  0  0
    0.5000    1.2125    0.0000 C   0  0  0  0  0  0  0  0  0  0  0  0
    2.9500    1.6500    0.0000 Cl  0  0  0  0  0  0  0  0  0  0  0  0
  2  1  1  0  0  0  0
  3  2  1  0  0  0  0
  4  6  1  0  0  0  0
  5  1  2  0  0  0  0
  6  5  1  0  0  0  0
  7  1  1  0  0  0  0
  8  9  2  0  0  0  0
  9 10  1  0  0  0  0
 10  7  1  0  0  0  0
 11  3  2  0  0  0  0
 12 14  2  0  0  0  0
 13  6  2  0  0  0  0
 14 16  1  0  0  0  0
 15  8  1  0  0  0  0
 16 10  2  0  0  0  0
 17 12  1  0  0  0  0
  3  4  1  0  0  0  0
  8 12  1  0  0  0  0
M  END
> <#>
1968

> <PLATE>
LAT025

> <ROW>
H

> <COL>
7

> <COORD>
H07

> <LATID>
LAT025H07

> <Supplier>
Chembridge

> <Suplier_CAT#>
5633509

> <Concentration_(mM)>
2.5

> <IC50_(µM)>
inactive

> <Yeast_Active?>
-

> <Pubchem_CID>
247612

$$$$
