
  -ISIS-  08130814242D

 12 12  0  0  0  0  0  0  0  0999 V2000
    4.5375   -3.2208    0.0000 C   0  0  0  0  0  0  0  0  0  0  0  0
    5.7875   -3.2208    0.0000 C   0  0  0  0  0  0  0  0  0  0  0  0
    6.4125   -2.1383    0.0000 C   0  0  0  0  0  0  0  0  0  0  0  0
    7.6625   -2.1383    0.0000 C   0  0  0  0  0  0  0  0  0  0  0  0
    8.2875   -1.0558    0.0000 O   0  0  0  0  0  0  0  0  0  0  0  0
    8.2875   -3.2208    0.0000 C   0  0  0  0  0  0  0  0  0  0  0  0
    9.5375   -3.2208    0.0000 O   0  0  0  0  0  0  0  0  0  0  0  0
    7.6625   -4.3034    0.0000 C   0  0  0  0  0  0  0  0  0  0  0  0
    8.2875   -5.3859    0.0000 O   0  0  0  0  0  0  0  0  0  0  0  0
    6.4125   -4.3034    0.0000 C   0  0  0  0  0  0  0  0  0  0  0  0
    3.9125   -4.3034    0.0000 O   0  0  0  0  0  0  0  0  0  0  0  0
    3.9125   -2.1383    0.0000 O   0  0  0  0  0  0  0  0  0  0  0  0
  1  2  1  0  0  0  0
  2  3  1  0  0  0  0
  3  4  2  0  0  0  0
  4  5  1  0  0  0  0
  4  6  1  0  0  0  0
  6  7  1  0  0  0  0
  6  8  2  0  0  0  0
  8  9  1  0  0  0  0
  8 10  1  0  0  0  0
  2 10  2  0  0  0  0
  1 11  2  0  0  0  0
  1 12  1  0  0  0  0
M  END
> <#>
294

> <PLATE>
LAT004

> <ROW>
F

> <COL>
8

> <COORD>
F08

> <LATID>
LAT004F08

> <Supplier>
Sigma

> <Suplier_CAT#>
G7384

> <Name>
Gallic Acid

> <Concentration_(mM)>
2.5

> <IC50_(µM)>
inactive

> <Yeast_Active?>
-

> <Pubchem_CID>
370

$$$$
