
  -ISIS-  08130814242D

 18 19  0  0  0  0  0  0  0  0999 V2000
   -0.8958   -1.0875    0.0000 N   0  0  0  0  0  0  0  0  0  0  0  0
   -0.4125   -1.4500    0.0000 N   0  0  0  0  0  0  0  0  0  0  0  0
   -0.8333   -0.4875    0.0000 C   0  0  0  0  0  0  0  0  0  0  0  0
    0.1500   -1.2042    0.0000 C   0  0  0  0  0  0  0  0  0  0  0  0
   -1.3125   -0.1292    0.0000 C   0  0  0  0  0  0  0  0  0  0  0  0
    0.6292   -1.5667    0.0000 O   0  0  0  0  0  0  0  0  0  0  0  0
   -0.2708   -0.2500    0.0000 C   0  0  0  0  0  0  0  0  0  0  0  0
   -1.8500   -0.3667    0.0000 C   0  0  0  0  0  0  0  0  0  0  0  0
   -1.2333    0.4500    0.0000 C   0  0  0  0  0  0  0  0  0  0  0  0
    0.1875   -0.6042    0.0000 C   0  0  0  0  0  0  0  0  0  0  0  0
   -1.7333    0.8333    0.0000 C   0  0  0  0  0  0  0  0  0  0  0  0
   -2.3333   -0.0292    0.0000 C   0  0  0  0  0  0  0  0  0  0  0  0
   -2.2708    0.5958    0.0000 C   0  0  0  0  0  0  0  0  0  0  0  0
   -2.7500    0.9500    0.0000 C   0  0  0  0  0  0  0  0  0  0  0  0
   -2.6958    1.5500    0.0000 C   0  0  0  0  0  0  0  0  0  0  0  0
   -3.0958    2.4958    0.0000 C   0  0  0  0  0  0  0  0  0  0  0  0
   -3.1708    1.9125    0.0000 C   0  0  0  0  0  0  0  0  0  0  0  0
   -3.5708    2.8500    0.0000 C   0  0  0  0  0  0  0  0  0  0  0  0
  2  1  1  0  0  0  0
  3  1  2  0  0  0  0
  4  2  1  0  0  0  0
  5  3  1  0  0  0  0
  6  4  2  0  0  0  0
  7  3  1  0  0  0  0
  8  5  1  0  0  0  0
  9  5  2  0  0  0  0
 10  7  1  0  0  0  0
 11  9  1  0  0  0  0
 12  8  2  0  0  0  0
 13 11  2  0  0  0  0
 14 13  1  0  0  0  0
 15 14  1  0  0  0  0
 16 17  1  0  0  0  0
 17 15  1  0  0  0  0
 18 16  1  0  0  0  0
 10  4  1  0  0  0  0
 13 12  1  0  0  0  0
M  END
> <#>
904

> <PLATE>
LAT012

> <ROW>
H

> <COL>
4

> <COORD>
H04

> <LATID>
LAT012H04

> <Supplier>
Chembridge

> <Suplier_CAT#>
5685004

> <Name>
Novel

> <Sec_Name>
218_D11

> <Concentration_(mM)>
2.5

> <IC50_(µM)>
58

> <Yeast_Active?>
-

> <Pubchem_CID>
NULL

$$$$
