
  -ISIS-  08130814242D

 31 34  0  0  0  0  0  0  0  0999 V2000
    6.9167   -2.2792    0.0000 C   0  0  0  0  0  0  0  0  0  0  0  0
    3.1167   -1.8542    0.0000 C   0  0  0  0  0  0  0  0  0  0  0  0
    0.8417   -0.5375    0.0000 O   0  0  0  0  0  0  0  0  0  0  0  0
    1.6042   -0.9542    0.0000 C   0  0  0  0  0  0  0  0  0  0  0  0
    7.6792   -1.8542    0.0000 C   0  0  0  0  0  0  0  0  0  0  0  0
    6.9167   -3.1792    0.0000 C   0  0  0  0  0  0  0  0  0  0  0  0
    3.8792   -2.2792    0.0000 C   0  0  0  0  0  0  0  0  0  0  0  0
    1.6042   -1.8542    0.0000 C   0  0  0  0  0  0  0  0  0  0  0  0
    6.1542   -1.8542    0.0000 C   0  0  0  0  0  0  0  0  0  0  0  0
    0.0792   -0.9542    0.0000 C   0  0  3  0  0  0  0  0  0  0  0  0
    2.3542   -2.2792    0.0000 C   0  0  0  0  0  0  0  0  0  0  0  0
    7.6792   -3.6000    0.0000 O   0  0  0  0  0  0  0  0  0  0  0  0
    3.1167   -0.9542    0.0000 C   0  0  0  0  0  0  0  0  0  0  0  0
    2.3542   -0.5375    0.0000 C   0  0  0  0  0  0  0  0  0  0  0  0
    5.4042   -2.2792    0.0000 C   0  0  0  0  0  0  0  0  0  0  0  0
    4.6417   -1.8542    0.0000 C   0  0  0  0  0  0  0  0  0  0  0  0
    8.4417   -2.2792    0.0000 C   0  0  0  0  0  0  0  0  0  0  0  0
    0.0792   -1.8542    0.0000 C   0  0  3  0  0  0  0  0  0  0  0  0
    0.8417   -2.2792    0.0000 C   0  0  0  0  0  0  0  0  0  0  0  0
    8.4417   -3.1792    0.0000 C   0  0  3  0  0  0  0  0  0  0  0  0
    6.1542   -3.6000    0.0000 C   0  0  0  0  0  0  0  0  0  0  0  0
    3.8792   -3.1792    0.0000 O   0  0  0  0  0  0  0  0  0  0  0  0
    5.4042   -3.1792    0.0000 C   0  0  0  0  0  0  0  0  0  0  0  0
    3.8792   -0.5375    0.0000 O   0  0  0  0  0  0  0  0  0  0  0  0
    6.1542   -0.9542    0.0000 O   0  0  0  0  0  0  0  0  0  0  0  0
   -0.6958   -2.3042    0.0000 O   0  0  0  0  0  0  0  0  0  0  0  0
    0.0792   -0.0875    0.0000 C   0  0  0  0  0  0  0  0  0  0  0  0
   -0.6708   -1.3167    0.0000 C   0  0  0  0  0  0  0  0  0  0  0  0
    8.4292   -4.0667    0.0000 C   0  0  0  0  0  0  0  0  0  0  0  0
    9.1417   -2.8167    0.0000 C   0  0  0  0  0  0  0  0  0  0  0  0
    6.9167   -0.5375    0.0000 C   0  0  0  0  0  0  0  0  0  0  0  0
  2  7  1  0  0  0  0
  3  4  1  0  0  0  0
  4 14  2  0  0  0  0
  5  1  1  0  0  0  0
  6  1  2  0  0  0  0
  7 16  1  0  0  0  0
  8 11  2  0  0  0  0
  9  1  1  0  0  0  0
 10  3  1  0  0  0  0
 11  2  1  0  0  0  0
 12  6  1  0  0  0  0
 13  2  2  0  0  0  0
 14 13  1  0  0  0  0
 15  9  2  0  0  0  0
 16 15  1  0  0  0  0
 17  5  2  0  0  0  0
 18 19  1  0  0  0  0
 19  8  1  0  0  0  0
 20 12  1  0  0  0  0
 21  6  1  0  0  0  0
 22  7  2  0  0  0  0
 23 15  1  0  0  0  0
 24 13  1  0  0  0  0
 25  9  1  0  0  0  0
 26 18  1  0  0  0  0
 27 10  1  0  0  0  0
 28 10  1  0  0  0  0
 29 20  1  0  0  0  0
 30 20  1  0  0  0  0
 31 25  1  0  0  0  0
 21 23  2  0  0  0  0
 20 17  1  0  0  0  0
  8  4  1  0  0  0  0
 18 10  1  0  0  0  0
M  END
> <#>
16

> <PLATE>
LAT001

> <ROW>
H

> <COL>
3

> <COORD>
H03

> <LATID>
LAT001H03

> <Supplier>
Microsource

> <Suplier_CAT#>
00210203

> <Name>
Dihydromunduletone

> <Concentration_(mM)>
2.5

> <IC50_(µM)>
8

> <Yeast_Active?>
-

> <Pubchem_CID>
3492326

> <Source>
derivative of mundulone

$$$$
