
  -ISIS-  08130814242D

 17 17  0  0  0  0  0  0  0  0999 V2000
    2.9750    0.8833    0.0000 C   0  0  0  0  0  0  0  0  0  0  0  0
    1.8500    1.5333    0.0000 N   0  0  3  0  0  0  0  0  0  0  0  0
    2.6000    1.5333    0.0000 C   0  0  0  0  0  0  0  0  0  0  0  0
    3.7250    0.8833    0.0000 C   0  0  0  0  0  0  0  0  0  0  0  0
    2.6000    0.2333    0.0000 O   0  0  0  0  0  0  0  0  0  0  0  0
    0.3500    1.5333    0.0000 O   0  0  0  0  0  0  0  0  0  0  0  0
    4.1000    0.2333    0.0000 C   0  0  0  0  0  0  0  0  0  0  0  0
    4.1000    1.5333    0.0000 C   0  0  0  0  0  0  0  0  0  0  0  0
    5.2250    0.8833    0.0000 C   0  0  0  0  0  0  0  0  0  0  0  0
    4.8500    1.5333    0.0000 C   0  0  0  0  0  0  0  0  0  0  0  0
    4.8500    0.2333    0.0000 C   0  0  0  0  0  0  0  0  0  0  0  0
    5.9750    0.8833    0.0000 O   0  0  0  0  0  0  0  0  0  0  0  0
    1.4750    0.8833    0.0000 C   0  0  0  0  0  0  0  0  0  0  0  0
    1.4750    2.1833    0.0000 C   0  0  0  0  0  0  0  0  0  0  0  0
    0.7250    0.8833    0.0000 C   0  0  0  0  0  0  0  0  0  0  0  0
    0.7250    2.1833    0.0000 C   0  0  0  0  0  0  0  0  0  0  0  0
    3.4042    2.6125    0.0000 Br  0  0  0  0  0  0  0  0  0  0  0  0
  2  3  1  0  0  0  0
  3  1  1  0  0  0  0
  4  1  1  0  0  0  0
  5  1  2  0  0  0  0
  6 16  1  0  0  0  0
  7  4  1  0  0  0  0
  8  4  2  0  0  0  0
  9 10  2  0  0  0  0
 10  8  1  0  0  0  0
 11  7  2  0  0  0  0
 12  9  1  0  0  0  0
 13  2  1  0  0  0  0
 14  2  1  0  0  0  0
 15 13  1  0  0  0  0
 16 14  1  0  0  0  0
 11  9  1  0  0  0  0
 15  6  1  0  0  0  0
M  END
> <#>
1393

> <PLATE>
LAT018

> <ROW>
A

> <COL>
6

> <COORD>
A06

> <LATID>
LAT018A06

> <Supplier>
Chembridge

> <Suplier_CAT#>
7878224

> <Name>
Novel

> <Concentration_(mM)>
2.5

> <IC50_(µM)>
inactive

> <Yeast_Active?>
-

> <Pubchem_CID>
1299468

$$$$
