
  -ISIS-  08130814242D

 16 17  0  0  0  0  0  0  0  0999 V2000
   -3.1625    1.9833    0.0000 C   0  0  0  0  0  0  0  0  0  0  0  0
   -3.5625    2.6625    0.0000 C   0  0  0  0  0  0  0  0  0  0  0  0
   -3.5625    1.3000    0.0000 N   0  0  0  0  0  0  0  0  0  0  0  0
   -1.9833    1.3000    0.0000 N   0  0  0  0  0  0  0  0  0  0  0  0
   -4.3458    2.6625    0.0000 N   0  0  0  0  0  0  0  0  0  0  0  0
   -2.3833    1.9833    0.0000 N   0  0  0  0  0  0  0  0  0  0  0  0
    0.3792   -0.0542    0.0000 N   0  0  0  0  0  0  0  0  0  0  0  0
   -1.2000    1.3000    0.0000 C   0  0  0  0  0  0  0  0  0  0  0  0
   -0.8000    0.6208    0.0000 C   0  0  0  0  0  0  0  0  0  0  0  0
   -3.1625    3.3458    0.0000 Cl  0  0  0  0  0  0  0  0  0  0  0  0
   -0.0208    0.6208    0.0000 C   0  0  0  0  0  0  0  0  0  0  0  0
   -4.3458    1.3000    0.0000 C   0  0  0  0  0  0  0  0  0  0  0  0
   -4.7458    1.9833    0.0000 C   0  0  0  0  0  0  0  0  0  0  0  0
   -0.0208   -0.7375    0.0000 C   0  0  0  0  0  0  0  0  0  0  0  0
   -1.2000   -0.0542    0.0000 C   0  0  0  0  0  0  0  0  0  0  0  0
   -0.8000   -0.7375    0.0000 C   0  0  0  0  0  0  0  0  0  0  0  0
  2  1  2  0  0  0  0
  3  1  1  0  0  0  0
  4  6  1  0  0  0  0
  5  2  1  0  0  0  0
  6  1  1  0  0  0  0
  7 11  2  0  0  0  0
  8  4  2  0  0  0  0
  9  8  1  0  0  0  0
 10  2  1  0  0  0  0
 11  9  1  0  0  0  0
 12  3  2  0  0  0  0
 13 12  1  0  0  0  0
 14 16  2  0  0  0  0
 15  9  2  0  0  0  0
 16 15  1  0  0  0  0
 13  5  2  0  0  0  0
 14  7  1  0  0  0  0
M  END
> <#>
1608

> <PLATE>
LAT021

> <ROW>
H

> <COL>
2

> <COORD>
H02

> <LATID>
LAT021H02

> <Supplier>
Chembridge

> <Suplier_CAT#>
5339189

> <Name>
Novel

> <Concentration_(mM)>
2.5

> <IC50_(µM)>
inactive

> <Yeast_Active?>
-

> <Pubchem_CID>
2842159

$$$$
