
  -ISIS-  08130814242D

 14 15  0  0  0  0  0  0  0  0999 V2000
    1.3997    2.1150    0.0000 C   0  0  0  0  0  0  0  0  0  0  0  0
    0.3419    2.7254    0.0000 C   0  0  0  0  0  0  0  0  0  0  0  0
    1.3999    0.8938    0.0000 O   0  0  0  0  0  0  0  0  0  0  0  0
    2.4571    2.7259    0.0000 O   0  0  0  0  0  0  0  0  0  0  0  0
   -1.7734    2.7249    0.0000 C   0  0  0  0  0  0  0  0  0  0  0  0
   -0.7156    2.1145    0.0000 C   0  0  0  0  0  0  0  0  0  0  0  0
   -0.7153    0.8933    0.0000 C   0  0  0  0  0  0  0  0  0  0  0  0
   -1.7728    0.2824    0.0000 C   0  0  0  0  0  0  0  0  0  0  0  0
   -2.8306    0.8928    0.0000 C   0  0  0  0  0  0  0  0  0  0  0  0
   -3.8881    0.2820    0.0000 C   0  0  0  0  0  0  0  0  0  0  0  0
   -4.9459    0.8923    0.0000 C   0  0  0  0  0  0  0  0  0  0  0  0
   -4.9462    2.1136    0.0000 C   0  0  0  0  0  0  0  0  0  0  0  0
   -3.8887    2.7245    0.0000 C   0  0  0  0  0  0  0  0  0  0  0  0
   -2.8309    2.1141    0.0000 C   0  0  0  0  0  0  0  0  0  0  0  0
  1  2  1  0  0  0  0
  1  3  2  0  0  0  0
  1  4  1  0  0  0  0
  5  6  1  0  0  0  0
  6  7  2  0  0  0  0
  7  8  1  0  0  0  0
  8  9  2  0  0  0  0
  9 10  1  0  0  0  0
 10 11  2  0  0  0  0
 11 12  1  0  0  0  0
 12 13  2  0  0  0  0
 13 14  1  0  0  0  0
  5 14  2  0  0  0  0
  9 14  1  0  0  0  0
  2  6  1  0  0  0  0
M  END
> <#>
434

> <PLATE>
LAT006

> <ROW>
B

> <COL>
6

> <COORD>
B06

> <LATID>
LAT006B06

> <Supplier>
ICN

> <Suplier_CAT#>
151502

> <Name>
Beta-Naphthaleneacetic Acid

> <Concentration_(mM)>
2.5

> <IC50_(µM)>
80

> <Yeast_Active?>
-

> <Pubchem_CID>
6862

$$$$
