
  -ISIS-  08130814242D

 23 25  0  0  0  0  0  0  0  0999 V2000
   -1.5958    0.2125    0.0000 C   0  0  0  0  0  0  0  0  0  0  0  0
   -1.0125   -0.1292    0.0000 C   0  0  0  0  0  0  0  0  0  0  0  0
   -0.4500    0.2125    0.0000 N   0  0  3  0  0  0  0  0  0  0  0  0
    0.6042    0.3333    0.0000 N   0  0  0  0  0  0  0  0  0  0  0  0
   -0.3125    0.8500    0.0000 N   0  0  0  0  0  0  0  0  0  0  0  0
   -2.1500   -0.1292    0.0000 C   0  0  0  0  0  0  0  0  0  0  0  0
    0.1292   -0.1292    0.0000 C   0  0  0  0  0  0  0  0  0  0  0  0
    0.3500    0.9333    0.0000 C   0  0  0  0  0  0  0  0  0  0  0  0
   -1.0125   -0.7875    0.0000 C   0  0  0  0  0  0  0  0  0  0  0  0
   -2.7125    0.2125    0.0000 C   0  0  0  0  0  0  0  0  0  0  0  0
   -2.1333   -0.7875    0.0000 O   0  0  0  0  0  0  0  0  0  0  0  0
   -1.5708   -1.1292    0.0000 C   0  0  0  0  0  0  0  0  0  0  0  0
   -0.4500   -1.1292    0.0000 C   0  0  0  0  0  0  0  0  0  0  0  0
   -3.2958   -0.1292    0.0000 C   0  0  0  0  0  0  0  0  0  0  0  0
   -2.7125    0.8500    0.0000 C   0  0  0  0  0  0  0  0  0  0  0  0
   -1.0125   -2.1042    0.0000 C   0  0  0  0  0  0  0  0  0  0  0  0
   -3.8500    0.8500    0.0000 C   0  0  0  0  0  0  0  0  0  0  0  0
   -1.5708   -1.7875    0.0000 C   0  0  0  0  0  0  0  0  0  0  0  0
   -3.8500    0.2125    0.0000 C   0  0  0  0  0  0  0  0  0  0  0  0
   -3.2958    1.1958    0.0000 C   0  0  0  0  0  0  0  0  0  0  0  0
   -0.4500   -1.7667    0.0000 C   0  0  0  0  0  0  0  0  0  0  0  0
   -1.0333   -2.7667    0.0000 Cl  0  0  0  0  0  0  0  0  0  0  0  0
   -4.4333    1.1958    0.0000 Cl  0  0  0  0  0  0  0  0  0  0  0  0
  2  1  2  0  0  0  0
  3  2  1  0  0  0  0
  4  7  2  0  0  0  0
  5  3  1  0  0  0  0
  6  1  1  0  0  0  0
  7  3  1  0  0  0  0
  8  5  2  0  0  0  0
  9  2  1  0  0  0  0
 10  6  1  0  0  0  0
 11  6  2  0  0  0  0
 12  9  1  0  0  0  0
 13  9  2  0  0  0  0
 14 10  1  0  0  0  0
 15 10  2  0  0  0  0
 16 21  2  0  0  0  0
 17 20  2  0  0  0  0
 18 12  2  0  0  0  0
 19 14  2  0  0  0  0
 20 15  1  0  0  0  0
 21 13  1  0  0  0  0
 22 16  1  0  0  0  0
 23 17  1  0  0  0  0
 17 19  1  0  0  0  0
 16 18  1  0  0  0  0
  4  8  1  0  0  0  0
M  END
> <#>
1708

> <PLATE>
LAT022

> <ROW>
D

> <COL>
5

> <COORD>
D05

> <LATID>
LAT022D05

> <Supplier>
Chembridge

> <Suplier_CAT#>
5543857

> <Name>
Novel

> <Concentration_(mM)>
2.5

> <IC50_(µM)>
>100

> <Yeast_Active?>
-

> <Pubchem_CID>
2851379

$$$$
