
  -ISIS-  08130814242D

 14 14  0  0  0  0  0  0  0  0999 V2000
    3.6250   -2.7292    0.0000 C   0  0  0  0  0  0  0  0  0  0  0  0
    3.6250   -3.5500    0.0000 C   0  0  0  0  0  0  0  0  0  0  0  0
    2.9000   -2.3167    0.0000 C   0  0  0  0  0  0  0  0  0  0  0  0
    4.3417   -2.2875    0.0000 C   0  0  0  0  0  0  0  0  0  0  0  0
    2.9000   -3.9542    0.0000 C   0  0  0  0  0  0  0  0  0  0  0  0
    2.1792   -2.7292    0.0000 C   0  0  0  0  0  0  0  0  0  0  0  0
    2.1792   -3.5500    0.0000 C   0  0  0  0  0  0  0  0  0  0  0  0
    5.0417   -2.7042    0.0000 O   0  0  0  0  0  0  0  0  0  0  0  0
    4.3417   -3.9542    0.0000 O   0  0  0  0  0  0  0  0  0  0  0  0
    4.3250   -1.4917    0.0000 O   0  0  0  0  0  0  0  0  0  0  0  0
    1.4417   -3.9542    0.0000 O   0  0  0  0  0  0  0  0  0  0  0  0
    2.9000   -1.4917    0.0000 C   0  0  0  0  0  0  0  0  0  0  0  0
    3.6042   -1.0792    0.0000 C   0  0  0  0  0  0  0  0  0  0  0  0
    3.6042   -0.2542    0.0000 C   0  0  0  0  0  0  0  0  0  0  0  0
  2  1  1  0  0  0  0
  3  1  2  0  0  0  0
  4  1  1  0  0  0  0
  5  2  2  0  0  0  0
  6  3  1  0  0  0  0
  7  6  2  0  0  0  0
  8  4  2  0  0  0  0
  9  2  1  0  0  0  0
 10  4  1  0  0  0  0
 11  7  1  0  0  0  0
 12  3  1  0  0  0  0
 13 10  1  0  0  0  0
 14 13  1  0  0  0  0
  5  7  1  0  0  0  0
M  END
> <#>
12

> <PLATE>
LAT001

> <ROW>
D

> <COL>
3

> <COORD>
D03

> <LATID>
LAT001D03

> <Supplier>
Microsource

> <Suplier_CAT#>
00200002

> <Name>
Orsellinic Acid, Ethyl Ester

> <Concentration_(mM)>
2.5

> <IC50_(µM)>
100

> <Yeast_Active?>
-

> <Pubchem_CID>
75653

> <Source>
Natural Product; ex Roccella and Lecanora lichens

$$$$
