
  -ISIS-  08130814242D

 24 25  0  0  0  0  0  0  0  0999 V2000
    3.4125    3.0000    0.0000 S   0  0  3  0  0  0  0  0  0  0  0  0
    4.0625    2.6250    0.0000 C   0  0  0  0  0  0  0  0  0  0  0  0
    4.7042    1.5000    0.0000 C   0  0  0  0  0  0  0  0  0  0  0  0
    4.0625    1.8750    0.0000 C   0  0  0  0  0  0  0  0  0  0  0  0
    2.8792    2.4708    0.0000 N   0  0  0  0  0  0  0  0  0  0  0  0
    5.3542    1.8750    0.0000 C   0  0  0  0  0  0  0  0  0  0  0  0
    4.7042    3.0000    0.0000 C   0  0  0  0  0  0  0  0  0  0  0  0
    5.3542    2.6250    0.0000 C   0  0  0  0  0  0  0  0  0  0  0  0
    3.8417    3.6208    0.0000 O   0  0  0  0  0  0  0  0  0  0  0  0
    2.8375    3.4833    0.0000 O   0  0  0  0  0  0  0  0  0  0  0  0
    0.9000    2.3333    0.0000 N   0  0  0  0  0  0  0  0  0  0  0  0
    2.1542    2.6708    0.0000 C   0  0  0  0  0  0  0  0  0  0  0  0
    1.6250    2.1333    0.0000 C   0  0  0  0  0  0  0  0  0  0  0  0
    4.7042    0.7500    0.0000 C   0  0  3  0  0  0  0  0  0  0  0  0
    6.0042    1.5000    0.0000 O   0  0  0  0  0  0  0  0  0  0  0  0
    4.7042    3.7500    0.0000 C   0  0  0  0  0  0  0  0  0  0  0  0
    0.3667    1.8000    0.0000 C   0  0  0  0  0  0  0  0  0  0  0  0
    4.0625    0.3750    0.0000 C   0  0  0  0  0  0  0  0  0  0  0  0
    5.3542    0.3750    0.0000 C   0  0  0  0  0  0  0  0  0  0  0  0
    6.6542    1.8750    0.0000 C   0  0  0  0  0  0  0  0  0  0  0  0
    1.8167    1.4125    0.0000 C   0  0  0  0  0  0  0  0  0  0  0  0
    7.3042    1.5000    0.0000 C   0  0  0  0  0  0  0  0  0  0  0  0
    0.5667    1.0750    0.0000 C   0  0  0  0  0  0  0  0  0  0  0  0
    1.2875    0.8833    0.0000 C   0  0  0  0  0  0  0  0  0  0  0  0
  2  1  1  0  0  0  0
  3  4  2  0  0  0  0
  4  2  1  0  0  0  0
  5  1  1  0  0  0  0
  6  8  2  0  0  0  0
  7  2  2  0  0  0  0
  8  7  1  0  0  0  0
  9  1  2  0  0  0  0
 10  1  2  0  0  0  0
 11 13  1  0  0  0  0
 12  5  1  0  0  0  0
 13 12  1  0  0  0  0
 14  3  1  0  0  0  0
 15  6  1  0  0  0  0
 16  7  1  0  0  0  0
 17 11  2  0  0  0  0
 18 14  1  0  0  0  0
 19 14  1  0  0  0  0
 20 15  1  0  0  0  0
 21 13  2  0  0  0  0
 22 20  1  0  0  0  0
 23 24  2  0  0  0  0
 24 21  1  0  0  0  0
  3  6  1  0  0  0  0
 17 23  1  0  0  0  0
M  END
> <#>
1654

> <PLATE>
LAT021

> <ROW>
F

> <COL>
8

> <COORD>
F08

> <LATID>
LAT021F08

> <Supplier>
Chembridge

> <Suplier_CAT#>
7996239

> <Name>
Novel

> <Concentration_(mM)>
2.5

> <IC50_(µM)>
54

> <Yeast_Active?>
-

> <Pubchem_CID>
2986875

$$$$
