
  -ISIS-  08130814242D

 18 20  0  0  0  0  0  0  0  0999 V2000
   -4.5108   -1.2729    0.0000 C   0  0  0  0  0  0  0  0  0  0  0  0
   -4.9088   -0.0880    0.0000 C   0  0  0  0  0  0  0  0  0  0  0  0
   -4.0817    0.8492    0.0000 C   0  0  0  0  0  0  0  0  0  0  0  0
   -2.8565    0.6014    0.0000 C   0  0  0  0  0  0  0  0  0  0  0  0
   -2.4584   -0.5835    0.0000 C   0  0  0  0  0  0  0  0  0  0  0  0
   -3.2856   -1.5207    0.0000 C   0  0  0  0  0  0  0  0  0  0  0  0
   -1.2085   -0.5711    0.0000 C   0  0  0  0  0  0  0  0  0  0  0  0
   -0.8340    0.6214    0.0000 C   0  0  0  0  0  0  0  0  0  0  0  0
   -1.8525    1.3461    0.0000 C   0  0  3  0  0  0  0  0  0  0  0  0
   -2.6981    2.2667    0.0000 C   0  0  0  0  0  0  0  0  0  0  0  0
   -3.9182    1.9947    0.0000 O   0  0  0  0  0  0  0  0  0  0  0  0
   -2.3236    3.4593    0.0000 O   0  0  0  0  0  0  0  0  0  0  0  0
   -1.0254    2.2833    0.0000 O   0  0  0  0  0  0  0  0  0  0  0  0
    0.3860    0.8934    0.0000 C   0  0  0  0  0  0  0  0  0  0  0  0
    1.2316   -0.0272    0.0000 C   0  0  0  0  0  0  0  0  0  0  0  0
    0.8571   -1.2197    0.0000 C   0  0  0  0  0  0  0  0  0  0  0  0
   -0.3629   -1.4917    0.0000 C   0  0  0  0  0  0  0  0  0  0  0  0
    2.4516    0.2448    0.0000 Cl  0  0  0  0  0  0  0  0  0  0  0  0
  1  2  2  0  0  0  0
  2  3  1  0  0  0  0
  3  4  2  0  0  0  0
  4  5  1  0  0  0  0
  5  6  2  0  0  0  0
  1  6  1  0  0  0  0
  5  7  1  0  0  0  0
  7  8  2  0  0  0  0
  8  9  1  0  0  0  0
  4  9  1  0  0  0  0
  9 10  1  0  0  0  0
 10 11  2  0  0  0  0
 10 12  1  0  0  0  0
  9 13  1  0  0  0  0
  8 14  1  0  0  0  0
 14 15  2  0  0  0  0
 15 16  1  0  0  0  0
 16 17  2  0  0  0  0
  7 17  1  0  0  0  0
 15 18  1  0  0  0  0
M  END
> <#>
1859

> <PLATE>
LAT024

> <ROW>
C

> <COL>
4

> <COORD>
C04

> <LATID>
LAT024C04

> <Supplier>
Riedel-de Haen

> <Suplier_CAT#>
45721

> <Name>
Chloroflurenol 

> <Concentration_(mM)>
2.5

> <IC50_(µM)>
36

> <Yeast_Active?>
-

> <Pubchem_CID>
17169

> <LATCA_Notes>
Auxin Polar Transport Inhibitor

$$$$
