
  -ISIS-  08130814242D

 23 24  0  0  0  0  0  0  0  0999 V2000
    2.1917   -0.9500    0.0000 C   0  0  0  0  0  0  0  0  0  0  0  0
    2.7167   -0.2292    0.0000 C   0  0  0  0  0  0  0  0  0  0  0  0
    2.7167   -1.6500    0.0000 S   0  0  0  0  0  0  0  0  0  0  0  0
    3.5542   -0.4875    0.0000 C   0  0  0  0  0  0  0  0  0  0  0  0
    3.5542   -1.3875    0.0000 C   0  0  0  0  0  0  0  0  0  0  0  0
    1.3167   -0.9500    0.0000 N   0  0  0  0  0  0  0  0  0  0  0  0
    2.4167    0.6333    0.0000 C   0  0  0  0  0  0  0  0  0  0  0  0
    0.8792   -0.1875    0.0000 C   0  0  0  0  0  0  0  0  0  0  0  0
   -1.8000   -0.1667    0.0000 C   0  0  0  0  0  0  0  0  0  0  0  0
   -2.6833   -0.1667    0.0000 C   0  0  0  0  0  0  0  0  0  0  0  0
   -1.3625    0.6125    0.0000 C   0  0  0  0  0  0  0  0  0  0  0  0
   -0.4625    0.6125    0.0000 O   0  0  0  0  0  0  0  0  0  0  0  0
    1.5542    0.8125    0.0000 O   0  0  0  0  0  0  0  0  0  0  0  0
    1.3167    0.5958    0.0000 O   0  0  0  0  0  0  0  0  0  0  0  0
   -1.8000    1.3958    0.0000 C   0  0  0  0  0  0  0  0  0  0  0  0
   -3.1208    0.6125    0.0000 C   0  0  0  0  0  0  0  0  0  0  0  0
    3.0000    1.3125    0.0000 N   0  0  0  0  0  0  0  0  0  0  0  0
   -0.0208   -0.1667    0.0000 C   0  0  0  0  0  0  0  0  0  0  0  0
   -1.3458   -0.9500    0.0000 Cl  0  0  0  0  0  0  0  0  0  0  0  0
   -2.6833    1.3958    0.0000 C   0  0  0  0  0  0  0  0  0  0  0  0
    4.3167   -0.0500    0.0000 C   0  0  0  0  0  0  0  0  0  0  0  0
   -4.0208    0.6125    0.0000 Cl  0  0  0  0  0  0  0  0  0  0  0  0
    4.3167   -1.8292    0.0000 C   0  0  0  0  0  0  0  0  0  0  0  0
  2  1  2  0  0  0  0
  3  1  1  0  0  0  0
  4  2  1  0  0  0  0
  5  3  1  0  0  0  0
  6  1  1  0  0  0  0
  7  2  1  0  0  0  0
  8  6  1  0  0  0  0
  9 11  1  0  0  0  0
 10  9  2  0  0  0  0
 11 12  1  0  0  0  0
 12 18  1  0  0  0  0
 13  7  2  0  0  0  0
 14  8  2  0  0  0  0
 15 11  2  0  0  0  0
 16 20  2  0  0  0  0
 17  7  1  0  0  0  0
 18  8  1  0  0  0  0
 19  9  1  0  0  0  0
 20 15  1  0  0  0  0
 21  4  1  0  0  0  0
 22 16  1  0  0  0  0
 23  5  1  0  0  0  0
  5  4  2  0  0  0  0
 16 10  1  0  0  0  0
M  END
> <#>
687

> <PLATE>
LAT009

> <ROW>
G

> <COL>
7

> <COORD>
G07

> <LATID>
LAT009G07

> <Supplier>
Chembridge

> <Suplier_CAT#>
5552704

> <Name>
Novel

> <Sec_Name>
164_B06

> <Concentration_(mM)>
2.5

> <IC50_(µM)>
16

> <Yeast_Active?>
+

> <Pubchem_CID>
1071403

$$$$
