
  -ISIS-  08130814242D

 24 26  0  0  0  0  0  0  0  0999 V2000
   -3.0833    1.6625    0.0000 C   0  0  0  0  0  0  0  0  0  0  0  0
   -3.5000    2.4000    0.0000 C   0  0  0  0  0  0  0  0  0  0  0  0
   -3.5000    0.9458    0.0000 C   0  0  0  0  0  0  0  0  0  0  0  0
   -4.7833    1.6625    0.0000 C   0  0  3  0  0  0  0  0  0  0  0  0
   -4.3458    2.4000    0.0000 C   0  0  0  0  0  0  0  0  0  0  0  0
   -4.3625    0.9458    0.0000 C   0  0  0  0  0  0  0  0  0  0  0  0
   -2.2458    1.6625    0.0000 C   0  0  0  0  0  0  0  0  0  0  0  0
    0.3167    3.1208    0.0000 N   0  0  3  0  0  0  0  0  0  0  0  0
   -3.0625    3.1458    0.0000 O   0  0  0  0  0  0  0  0  0  0  0  0
   -3.0625    0.1833    0.0000 O   0  0  0  0  0  0  0  0  0  0  0  0
   -5.6208    1.6625    0.0000 C   0  0  0  0  0  0  0  0  0  0  0  0
    2.0000    3.1208    0.0000 O   0  0  0  0  0  0  0  0  0  0  0  0
   -1.8208    2.4000    0.0000 N   0  0  0  0  0  0  0  0  0  0  0  0
   -0.5458    3.1208    0.0000 C   0  0  0  0  0  0  0  0  0  0  0  0
    0.7375    2.4000    0.0000 C   0  0  0  0  0  0  0  0  0  0  0  0
    0.7375    3.8625    0.0000 C   0  0  0  0  0  0  0  0  0  0  0  0
    1.5792    2.4000    0.0000 C   0  0  0  0  0  0  0  0  0  0  0  0
    1.6000    3.8625    0.0000 C   0  0  0  0  0  0  0  0  0  0  0  0
   -0.9625    2.4000    0.0000 C   0  0  0  0  0  0  0  0  0  0  0  0
   -6.0542    0.9208    0.0000 C   0  0  0  0  0  0  0  0  0  0  0  0
   -6.0292    2.4000    0.0000 C   0  0  0  0  0  0  0  0  0  0  0  0
   -6.9000    2.4000    0.0000 C   0  0  0  0  0  0  0  0  0  0  0  0
   -6.9000    0.9208    0.0000 C   0  0  0  0  0  0  0  0  0  0  0  0
   -7.3167    1.6625    0.0000 C   0  0  0  0  0  0  0  0  0  0  0  0
  2  1  1  0  0  0  0
  3  1  1  0  0  0  0
  4  6  1  0  0  0  0
  5  2  1  0  0  0  0
  6  3  1  0  0  0  0
  7  1  2  0  0  0  0
  8 14  1  0  0  0  0
  9  2  2  0  0  0  0
 10  3  2  0  0  0  0
 11  4  1  0  0  0  0
 12 18  1  0  0  0  0
 13  7  1  0  0  0  0
 14 19  1  0  0  0  0
 15  8  1  0  0  0  0
 16  8  1  0  0  0  0
 17 15  1  0  0  0  0
 18 16  1  0  0  0  0
 19 13  1  0  0  0  0
 20 11  2  0  0  0  0
 21 11  1  0  0  0  0
 22 21  2  0  0  0  0
 23 20  1  0  0  0  0
 24 22  1  0  0  0  0
  4  5  1  0  0  0  0
 12 17  1  0  0  0  0
 23 24  2  0  0  0  0
M  END
> <#>
869

> <PLATE>
LAT011

> <ROW>
E

> <COL>
10

> <COORD>
E10

> <LATID>
LAT011E10

> <Supplier>
Chembridge

> <Suplier_CAT#>
5666628

> <Name>
Novel

> <Sec_Name>
209_E08

> <Concentration_(mM)>
2.5

> <IC50_(µM)>
75

> <Yeast_Active?>
-

> <Pubchem_CID>
2256111

$$$$
