
  -ISIS-  08130814242D

 25 27  0  0  0  0  0  0  0  0999 V2000
   -0.3833    0.1625    0.0000 C   0  0  0  0  0  0  0  0  0  0  0  0
   -1.0625    0.5625    0.0000 C   0  0  0  0  0  0  0  0  0  0  0  0
   -1.7458    0.1625    0.0000 C   0  0  0  0  0  0  0  0  0  0  0  0
    0.3000    0.5625    0.0000 C   0  0  0  0  0  0  0  0  0  0  0  0
    0.9792    0.1833    0.0000 C   0  0  0  0  0  0  0  0  0  0  0  0
    1.6542    0.5625    0.0000 C   0  0  0  0  0  0  0  0  0  0  0  0
   -0.3833   -0.6375    0.0000 C   0  0  0  0  0  0  0  0  0  0  0  0
    3.0167    0.5625    0.0000 C   0  0  0  0  0  0  0  0  0  0  0  0
    2.3375    0.1833    0.0000 C   0  0  0  0  0  0  0  0  0  0  0  0
    3.7000    0.1833    0.0000 C   0  0  0  0  0  0  0  0  0  0  0  0
   -1.7458   -0.6375    0.0000 C   0  0  0  0  0  0  0  0  0  0  0  0
   -1.0625   -1.0167    0.0000 C   0  0  0  0  0  0  0  0  0  0  0  0
    0.3000    1.3458    0.0000 O   0  0  0  0  0  0  0  0  0  0  0  0
   -1.0625    1.3458    0.0000 O   0  0  0  0  0  0  0  0  0  0  0  0
    3.0167    1.3625    0.0000 O   0  0  0  0  0  0  0  0  0  0  0  0
    4.3792    0.5833    0.0000 O   0  0  0  0  0  0  0  0  0  0  0  0
   -2.4208    0.5625    0.0000 C   0  0  0  0  0  0  0  0  0  0  0  0
    3.0167   -1.0167    0.0000 C   0  0  0  0  0  0  0  0  0  0  0  0
    2.3375   -0.6167    0.0000 C   0  0  0  0  0  0  0  0  0  0  0  0
    3.7000   -0.6167    0.0000 C   0  0  0  0  0  0  0  0  0  0  0  0
   -2.4208   -1.0167    0.0000 C   0  0  0  0  0  0  0  0  0  0  0  0
    2.3375    1.7458    0.0000 C   0  0  0  0  0  0  0  0  0  0  0  0
    5.0542    0.2000    0.0000 C   0  0  0  0  0  0  0  0  0  0  0  0
   -3.1000    0.1625    0.0000 C   0  0  0  0  0  0  0  0  0  0  0  0
   -3.1000   -0.6375    0.0000 C   0  0  0  0  0  0  0  0  0  0  0  0
  2  1  1  0  0  0  0
  3  2  2  0  0  0  0
  4  1  1  0  0  0  0
  5  4  1  0  0  0  0
  6  5  2  0  0  0  0
  7  1  2  0  0  0  0
  8  9  1  0  0  0  0
  9  6  1  0  0  0  0
 10  8  2  0  0  0  0
 11 12  2  0  0  0  0
 12  7  1  0  0  0  0
 13  4  2  0  0  0  0
 14  2  1  0  0  0  0
 15  8  1  0  0  0  0
 16 10  1  0  0  0  0
 17  3  1  0  0  0  0
 18 19  1  0  0  0  0
 19  9  2  0  0  0  0
 20 18  2  0  0  0  0
 21 11  1  0  0  0  0
 22 15  1  0  0  0  0
 23 16  1  0  0  0  0
 24 17  2  0  0  0  0
 25 21  2  0  0  0  0
 11  3  1  0  0  0  0
 25 24  1  0  0  0  0
 20 10  1  0  0  0  0
M  END
> <#>
1225

> <PLATE>
LAT016

> <ROW>
A

> <COL>
5

> <COORD>
A05

> <LATID>
LAT016A05

> <Supplier>
Chembridge

> <Suplier_CAT#>
6144433

> <Name>
Novel

> <Concentration_(mM)>
2.5

> <IC50_(µM)>
inactive

> <Yeast_Active?>
-

> <Pubchem_CID>
2888001

$$$$
