
  -ISIS-  08130814242D

 34 38  0  0  0  0  0  0  0  0999 V2000
    3.5917   -2.9292    0.0000 C   0  0  0  0  0  0  0  0  0  0  0  0
    2.3000   -2.9292    0.0000 C   0  0  0  0  0  0  0  0  0  0  0  0
    2.3000   -3.6792    0.0000 C   0  0  0  0  0  0  0  0  0  0  0  0
    3.5917   -3.6792    0.0000 C   0  0  0  0  0  0  0  0  0  0  0  0
    2.9417   -2.5542    0.0000 C   0  0  3  0  0  0  0  0  0  0  0  0
    2.9417   -4.0542    0.0000 N   0  0  0  0  0  0  0  0  0  0  0  0
    1.6542   -2.5542    0.0000 C   0  0  0  0  0  0  0  0  0  0  0  0
    4.2500   -2.5542    0.0000 C   0  0  0  0  0  0  0  0  0  0  0  0
    1.6542   -4.0542    0.0000 C   0  0  0  0  0  0  0  0  0  0  0  0
    1.0042   -3.6792    0.0000 C   0  0  3  0  0  0  0  0  0  0  0  0
    1.0042   -2.9292    0.0000 C   0  0  0  0  0  0  0  0  0  0  0  0
    4.9000   -2.9292    0.0000 O   0  0  0  0  0  0  0  0  0  0  0  0
    1.6542   -1.8042    0.0000 O   0  0  0  0  0  0  0  0  0  0  0  0
    2.9417   -1.8042    0.0000 C   0  0  0  0  0  0  0  0  0  0  0  0
    4.2500   -1.8042    0.0000 O   0  0  0  0  0  0  0  0  0  0  0  0
    2.9417   -0.3042    0.0000 N   0  0  0  0  0  0  0  0  0  0  0  0
    0.3542   -4.0625    0.0000 C   0  0  0  0  0  0  0  0  0  0  0  0
    5.5500   -2.5542    0.0000 C   0  0  0  0  0  0  0  0  0  0  0  0
    4.2500   -4.0625    0.0000 C   0  0  0  0  0  0  0  0  0  0  0  0
    6.1917   -2.9292    0.0000 C   0  0  0  0  0  0  0  0  0  0  0  0
    2.3000   -0.6792    0.0000 C   0  0  0  0  0  0  0  0  0  0  0  0
    3.5917   -0.6792    0.0000 C   0  0  0  0  0  0  0  0  0  0  0  0
    2.3000   -1.4292    0.0000 C   0  0  0  0  0  0  0  0  0  0  0  0
    3.5917   -1.4292    0.0000 C   0  0  0  0  0  0  0  0  0  0  0  0
   -0.2958   -3.6875    0.0000 C   0  0  0  0  0  0  0  0  0  0  0  0
    0.3542   -4.8125    0.0000 C   0  0  0  0  0  0  0  0  0  0  0  0
    6.1917   -3.6792    0.0000 C   0  0  0  0  0  0  0  0  0  0  0  0
    6.8500   -2.5542    0.0000 C   0  0  0  0  0  0  0  0  0  0  0  0
   -0.2958   -5.1875    0.0000 C   0  0  0  0  0  0  0  0  0  0  0  0
   -0.9458   -4.0625    0.0000 C   0  0  0  0  0  0  0  0  0  0  0  0
    7.4917   -2.9375    0.0000 C   0  0  0  0  0  0  0  0  0  0  0  0
    6.8417   -4.0542    0.0000 C   0  0  0  0  0  0  0  0  0  0  0  0
   -0.9458   -4.8125    0.0000 C   0  0  0  0  0  0  0  0  0  0  0  0
    7.4917   -3.6875    0.0000 C   0  0  0  0  0  0  0  0  0  0  0  0
  2  5  1  0  0  0  0
  3  2  2  0  0  0  0
  4  1  2  0  0  0  0
  5  1  1  0  0  0  0
  6  4  1  0  0  0  0
  7  2  1  0  0  0  0
  8  1  1  0  0  0  0
  9  3  1  0  0  0  0
 10 11  1  0  0  0  0
 11  7  1  0  0  0  0
 12  8  1  0  0  0  0
 13  7  2  0  0  0  0
 14  5  1  0  0  0  0
 15  8  2  0  0  0  0
 16 22  2  0  0  0  0
 17 10  1  0  0  0  0
 18 12  1  0  0  0  0
 19  4  1  0  0  0  0
 20 18  1  0  0  0  0
 21 23  2  0  0  0  0
 22 24  1  0  0  0  0
 23 14  1  0  0  0  0
 24 14  2  0  0  0  0
 25 17  1  0  0  0  0
 26 17  2  0  0  0  0
 27 20  1  0  0  0  0
 28 20  2  0  0  0  0
 29 26  1  0  0  0  0
 30 25  2  0  0  0  0
 31 28  1  0  0  0  0
 32 27  2  0  0  0  0
 33 29  2  0  0  0  0
 34 31  2  0  0  0  0
  3  6  1  0  0  0  0
 16 21  1  0  0  0  0
  9 10  1  0  0  0  0
 34 32  1  0  0  0  0
 33 30  1  0  0  0  0
M  END
> <#>
1843

> <PLATE>
LAT024

> <ROW>
C

> <COL>
2

> <COORD>
C02

> <LATID>
LAT024C02

> <Supplier>
Chembridge

> <Suplier_CAT#>
5705955

> <Name>
Novel

> <Sec_Name>
224_D04

> <Concentration_(mM)>
2.5

> <IC50_(µM)>
21

> <Yeast_Active?>
-

> <Pubchem_CID>
1097897

$$$$
