
  -ISIS-  08130814242D

 21 22  0  0  0  0  0  0  0  0999 V2000
    2.3375   -2.5167    0.0000 N   0  3  0  0  0  0  0  0  0  0  0  0
   -3.5833   -1.0792    0.0000 C   0  0  0  0  0  0  0  0  0  0  0  0
   -4.4208   -0.6167    0.0000 N   0  0  0  0  0  0  0  0  0  0  0  0
   -3.5458   -2.0542    0.0000 N   0  0  0  0  0  0  0  0  0  0  0  0
   -1.9083   -1.0542    0.0000 N   0  0  0  0  0  0  0  0  0  0  0  0
   -2.7625   -0.5792    0.0000 N   0  0  0  0  0  0  0  0  0  0  0  0
    1.4792   -2.0167    0.0000 C   0  0  0  0  0  0  0  0  0  0  0  0
    2.3375   -3.5000    0.0000 O   0  5  0  0  0  0  0  0  0  0  0  0
   -1.0833   -0.5542    0.0000 C   0  0  0  0  0  0  0  0  0  0  0  0
    3.1542   -2.0167    0.0000 O   0  0  0  0  0  0  0  0  0  0  0  0
   -5.2458   -1.1375    0.0000 C   0  0  0  0  0  0  0  0  0  0  0  0
   -4.3833   -2.5542    0.0000 C   0  0  0  0  0  0  0  0  0  0  0  0
   -0.2208   -1.0542    0.0000 C   0  0  0  0  0  0  0  0  0  0  0  0
   -5.2458   -2.0792    0.0000 C   0  0  0  0  0  0  0  0  0  0  0  0
    1.4792   -1.0542    0.0000 C   0  0  0  0  0  0  0  0  0  0  0  0
    0.6375   -2.5167    0.0000 C   0  0  0  0  0  0  0  0  0  0  0  0
    0.6375   -0.5792    0.0000 C   0  0  0  0  0  0  0  0  0  0  0  0
   -0.2208   -2.0167    0.0000 C   0  0  0  0  0  0  0  0  0  0  0  0
   -1.1125    0.4000    0.0000 C   0  0  0  0  0  0  0  0  0  0  0  0
   -6.0875   -0.7042    0.0000 C   0  0  0  0  0  0  0  0  0  0  0  0
   -4.3625   -3.5167    0.0000 C   0  0  0  0  0  0  0  0  0  0  0  0
  2  6  1  0  0  0  0
  3  2  2  0  0  0  0
  4  2  1  0  0  0  0
  5  9  2  0  0  0  0
  6  5  1  0  0  0  0
  7  1  1  0  0  0  0
  8  1  1  0  0  0  0
  9 13  1  0  0  0  0
 10  1  2  0  0  0  0
 11  3  1  0  0  0  0
 12  4  2  0  0  0  0
 13 18  2  0  0  0  0
 14 12  1  0  0  0  0
 15  7  1  0  0  0  0
 16  7  2  0  0  0  0
 17 15  2  0  0  0  0
 18 16  1  0  0  0  0
 19  9  1  0  0  0  0
 20 11  1  0  0  0  0
 21 12  1  0  0  0  0
 17 13  1  0  0  0  0
 11 14  2  0  0  0  0
M  CHG  2   1   1   8  -1
M  END
> <#>
1789

> <PLATE>
LAT023

> <ROW>
E

> <COL>
5

> <COORD>
E05

> <LATID>
LAT023E05

> <Supplier>
Chembridge

> <Suplier_CAT#>
5562154

> <Name>
Novel

> <Sec_Name>
170_B10

> <Concentration_(mM)>
2.5

> <IC50_(µM)>
68

> <Yeast_Active?>
-

> <Pubchem_CID>
2852828

$$$$
