
  -ISIS-  08130814242D

 18 19  0  0  0  0  0  0  0  0999 V2000
    1.3042    1.4458    0.0000 N   0  0  0  0  0  0  0  0  0  0  0  0
    0.6875    1.6458    0.0000 C   0  0  0  0  0  0  0  0  0  0  0  0
    1.4667    0.8208    0.0000 C   0  0  0  0  0  0  0  0  0  0  0  0
    1.0042    0.4000    0.0000 C   0  0  0  0  0  0  0  0  0  0  0  0
    0.4875    2.2458    0.0000 N   0  0  0  0  0  0  0  0  0  0  0  0
    0.1875    1.2625    0.0000 S   0  0  0  0  0  0  0  0  0  0  0  0
    1.1500   -0.2167    0.0000 N   0  0  0  0  0  0  0  0  0  0  0  0
   -0.1500    2.2208    0.0000 C   0  0  0  0  0  0  0  0  0  0  0  0
    2.0667    0.6458    0.0000 O   0  0  0  0  0  0  0  0  0  0  0  0
   -0.3500    1.6458    0.0000 C   0  0  0  0  0  0  0  0  0  0  0  0
    2.4875   -1.1875    0.0000 N   0  0  0  0  0  0  0  0  0  0  0  0
    0.4042    0.5833    0.0000 O   0  0  0  0  0  0  0  0  0  0  0  0
    1.7500   -0.4000    0.0000 C   0  0  0  0  0  0  0  0  0  0  0  0
    1.8875   -1.0042    0.0000 C   0  0  0  0  0  0  0  0  0  0  0  0
    2.6292   -1.8042    0.0000 C   0  0  0  0  0  0  0  0  0  0  0  0
    1.4292   -1.4292    0.0000 C   0  0  0  0  0  0  0  0  0  0  0  0
    2.1667   -2.2292    0.0000 C   0  0  0  0  0  0  0  0  0  0  0  0
    1.5792   -2.0500    0.0000 C   0  0  0  0  0  0  0  0  0  0  0  0
  2  1  1  0  0  0  0
  3  1  1  0  0  0  0
  4  3  1  0  0  0  0
  5  2  2  0  0  0  0
  6  2  1  0  0  0  0
  7  4  1  0  0  0  0
  8  5  1  0  0  0  0
  9  3  2  0  0  0  0
 10  6  1  0  0  0  0
 11 14  1  0  0  0  0
 12  4  2  0  0  0  0
 13  7  1  0  0  0  0
 14 13  1  0  0  0  0
 15 11  2  0  0  0  0
 16 14  2  0  0  0  0
 17 18  2  0  0  0  0
 18 16  1  0  0  0  0
  8 10  2  0  0  0  0
 17 15  1  0  0  0  0
M  END
> <#>
1408

> <PLATE>
LAT018

> <ROW>
H

> <COL>
7

> <COORD>
H07

> <LATID>
LAT018H07

> <Supplier>
Chembridge

> <Suplier_CAT#>
5654321

> <Name>
Novel

> <Concentration_(mM)>
2.5

> <IC50_(µM)>
inactive

> <Yeast_Active?>
-

> <Pubchem_CID>
1918890

$$$$
