
  -ISIS-  08130814242D

 24 26  0  0  0  0  0  0  0  0999 V2000
   -2.6333    1.8208    0.0000 C   0  0  0  0  0  0  0  0  0  0  0  0
   -3.2958    0.6333    0.0000 C   0  0  0  0  0  0  0  0  0  0  0  0
   -1.9708    2.2125    0.0000 N   0  0  0  0  0  0  0  0  0  0  0  0
   -2.6333    1.0333    0.0000 C   0  0  0  0  0  0  0  0  0  0  0  0
   -0.5958    2.2125    0.0000 C   0  0  0  0  0  0  0  0  0  0  0  0
   -3.3208    2.2125    0.0000 C   0  0  0  0  0  0  0  0  0  0  0  0
   -1.2833    1.8208    0.0000 C   0  0  0  0  0  0  0  0  0  0  0  0
    0.0792    1.8500    0.0000 C   0  0  0  0  0  0  0  0  0  0  0  0
   -4.0000    1.0333    0.0000 C   0  0  0  0  0  0  0  0  0  0  0  0
   -3.2958   -0.1667    0.0000 C   0  0  0  0  0  0  0  0  0  0  0  0
   -4.0000    1.8208    0.0000 C   0  0  0  0  0  0  0  0  0  0  0  0
   -3.3333    2.9958    0.0000 O   0  0  0  0  0  0  0  0  0  0  0  0
    0.0792    1.0708    0.0000 O   0  0  0  0  0  0  0  0  0  0  0  0
   -0.5958    2.9958    0.0000 C   0  0  0  0  0  0  0  0  0  0  0  0
    0.7500    2.2125    0.0000 C   0  0  0  0  0  0  0  0  0  0  0  0
   -3.9583   -0.5292    0.0000 C   0  0  0  0  0  0  0  0  0  0  0  0
   -2.6208   -0.5500    0.0000 C   0  0  0  0  0  0  0  0  0  0  0  0
   -2.6708    3.3833    0.0000 C   0  0  0  0  0  0  0  0  0  0  0  0
   -0.5958    0.6833    0.0000 C   0  0  0  0  0  0  0  0  0  0  0  0
    0.0792    3.3833    0.0000 C   0  0  0  0  0  0  0  0  0  0  0  0
   -3.9583   -1.3167    0.0000 C   0  0  0  0  0  0  0  0  0  0  0  0
   -2.6208   -1.3167    0.0000 C   0  0  0  0  0  0  0  0  0  0  0  0
    0.7500    2.9958    0.0000 C   0  0  0  0  0  0  0  0  0  0  0  0
   -3.2958   -1.7042    0.0000 C   0  0  0  0  0  0  0  0  0  0  0  0
  2  4  1  0  0  0  0
  3  1  1  0  0  0  0
  4  1  2  0  0  0  0
  5  7  1  0  0  0  0
  6  1  1  0  0  0  0
  7  3  1  0  0  0  0
  8  5  1  0  0  0  0
  9 11  1  0  0  0  0
 10  2  1  0  0  0  0
 11  6  2  0  0  0  0
 12  6  1  0  0  0  0
 13  8  1  0  0  0  0
 14  5  2  0  0  0  0
 15  8  2  0  0  0  0
 16 10  2  0  0  0  0
 17 10  1  0  0  0  0
 18 12  1  0  0  0  0
 19 13  1  0  0  0  0
 20 14  1  0  0  0  0
 21 16  1  0  0  0  0
 22 17  2  0  0  0  0
 23 20  2  0  0  0  0
 24 22  1  0  0  0  0
  2  9  2  0  0  0  0
 21 24  2  0  0  0  0
 15 23  1  0  0  0  0
M  END
> <#>
1978

> <PLATE>
LAT025

> <ROW>
B

> <COL>
9

> <COORD>
B09

> <LATID>
LAT025B09

> <Supplier>
Chembridge

> <Suplier_CAT#>
5460549

> <Sec_Name>
129_G03

> <Concentration_(mM)>
2.5

> <IC50_(µM)>
inactive

> <Yeast_Active?>
-

> <Pubchem_CID>
784343

$$$$
