
  -ISIS-  08130814242D

 66 69  0  0  0  0  0  0  0  0999 V2000
    6.3662    1.7818    0.0000 C   0  0  0  0  0  0  0  0  0  0  0  0
    6.7296    1.2626    0.0000 C   0  0  0  0  0  0  0  0  0  0  0  0
    6.4616    0.6883    0.0000 C   0  0  0  0  0  0  0  0  0  0  0  0
    5.8307    0.6330    0.0000 C   0  0  0  0  0  0  0  0  0  0  0  0
    5.4669    1.1524    0.0000 C   0  0  0  0  0  0  0  0  0  0  0  0
    5.7349    1.7267    0.0000 C   0  0  0  0  0  0  0  0  0  0  0  0
    5.5620    0.0595    0.0000 N   0  0  0  0  0  0  0  0  0  0  0  0
    4.9314    0.0054    0.0000 C   0  0  0  0  0  0  0  0  0  0  0  0
    4.6635   -0.5700    0.0000 N   0  0  0  0  0  0  0  0  0  0  0  0
    4.0326   -0.6253    0.0000 C   0  0  0  0  0  0  0  0  0  0  0  0
    3.6688   -0.1059    0.0000 N   0  0  0  0  0  0  0  0  0  0  0  0
    3.9364    0.4682    0.0000 C   0  0  0  0  0  0  0  0  0  0  0  0
    4.5681    0.5235    0.0000 N   0  0  0  0  0  0  0  0  0  0  0  0
    3.5741    0.9876    0.0000 N   0  0  3  0  0  0  0  0  0  0  0  0
    2.9426    0.9335    0.0000 C   0  0  0  0  0  0  0  0  0  0  0  0
    2.5809    1.4521    0.0000 C   0  0  0  0  0  0  0  0  0  0  0  0
    1.9485    1.3979    0.0000 O   0  0  0  0  0  0  0  0  0  0  0  0
    3.8426    1.5607    0.0000 C   0  0  0  0  0  0  0  0  0  0  0  0
    3.4796    2.0810    0.0000 C   0  0  0  0  0  0  0  0  0  0  0  0
    3.8879    2.5658    0.0000 O   0  0  0  0  0  0  0  0  0  0  0  0
    3.7639   -1.1988    0.0000 N   0  0  0  0  0  0  0  0  0  0  0  0
    3.1333   -1.2529    0.0000 C   0  0  0  0  0  0  0  0  0  0  0  0
    2.8654   -1.8284    0.0000 C   0  0  0  0  0  0  0  0  0  0  0  0
    2.2345   -1.8836    0.0000 C   0  0  0  0  0  0  0  0  0  0  0  0
    1.8707   -1.3646    0.0000 C   0  0  0  0  0  0  0  0  0  0  0  0
    2.1387   -0.7899    0.0000 C   0  0  0  0  0  0  0  0  0  0  0  0
    2.7700   -0.7348    0.0000 C   0  0  0  0  0  0  0  0  0  0  0  0
    1.2397   -1.4187    0.0000 C   0  0  0  0  0  0  0  0  0  0  0  0
    0.8776   -0.8996    0.0000 C   0  0  0  0  0  0  0  0  0  0  0  0
    0.2456   -0.9538    0.0000 C   0  0  0  0  0  0  0  0  0  0  0  0
   -0.0219   -1.5293    0.0000 C   0  0  0  0  0  0  0  0  0  0  0  0
   -0.6537   -1.5847    0.0000 C   0  0  0  0  0  0  0  0  0  0  0  0
   -1.0170   -1.0659    0.0000 C   0  0  0  0  0  0  0  0  0  0  0  0
   -0.7490   -0.4911    0.0000 C   0  0  0  0  0  0  0  0  0  0  0  0
   -0.1177   -0.4361    0.0000 C   0  0  0  0  0  0  0  0  0  0  0  0
   -1.6480   -1.1200    0.0000 N   0  0  0  0  0  0  0  0  0  0  0  0
   -2.0101   -0.6009    0.0000 C   0  0  0  0  0  0  0  0  0  0  0  0
   -2.6424   -0.6566    0.0000 N   0  0  0  0  0  0  0  0  0  0  0  0
   -3.0058   -0.1379    0.0000 C   0  0  0  0  0  0  0  0  0  0  0  0
   -2.7378    0.4369    0.0000 N   0  0  0  0  0  0  0  0  0  0  0  0
   -2.1069    0.4922    0.0000 C   0  0  0  0  0  0  0  0  0  0  0  0
   -1.7431   -0.0273    0.0000 N   0  0  0  0  0  0  0  0  0  0  0  0
   -1.8382    1.0657    0.0000 N   0  0  0  0  0  0  0  0  0  0  0  0
   -2.2008    1.5855    0.0000 C   0  0  0  0  0  0  0  0  0  0  0  0
   -2.8331    1.5297    0.0000 C   0  0  0  0  0  0  0  0  0  0  0  0
   -3.1965    2.0490    0.0000 C   0  0  0  0  0  0  0  0  0  0  0  0
   -2.9285    2.6233    0.0000 C   0  0  0  0  0  0  0  0  0  0  0  0
   -2.2971    2.6783    0.0000 C   0  0  0  0  0  0  0  0  0  0  0  0
   -1.9338    2.1591    0.0000 C   0  0  0  0  0  0  0  0  0  0  0  0
   -3.6368   -0.1919    0.0000 N   0  0  3  0  0  0  0  0  0  0  0  0
   -3.9056   -0.7658    0.0000 C   0  0  0  0  0  0  0  0  0  0  0  0
   -4.5356   -0.8198    0.0000 C   0  0  0  0  0  0  0  0  0  0  0  0
   -4.8049   -1.3946    0.0000 O   0  0  0  0  0  0  0  0  0  0  0  0
   -3.9989    0.3272    0.0000 C   0  0  0  0  0  0  0  0  0  0  0  0
   -4.6309    0.2730    0.0000 C   0  0  0  0  0  0  0  0  0  0  0  0
   -4.9935    0.7928    0.0000 O   0  0  0  0  0  0  0  0  0  0  0  0
    0.3404   -2.0488    0.0000 S   0  0  3  0  0  0  0  0  0  0  0  0
   -0.1786   -2.4109    0.0000 O   0  0  0  0  0  0  0  0  0  0  0  0
    0.8603   -1.6862    0.0000 O   0  0  0  0  0  0  0  0  0  0  0  0
    0.7028   -2.5682    0.0000 O   0  5  0  0  0  0  0  0  0  0  0  0
    1.9658   -2.4571    0.0000 S   0  0  3  0  0  0  0  0  0  0  0  0
    2.5397   -2.7260    0.0000 O   0  0  0  0  0  0  0  0  0  0  0  0
    1.3927   -2.1887    0.0000 O   0  0  0  0  0  0  0  0  0  0  0  0
    1.6971   -3.0306    0.0000 O   0  5  0  0  0  0  0  0  0  0  0  0
    2.2711   -3.4352    0.0000 Na  0  3  0  0  0  0  0  0  0  0  0  0
    0.3410   -3.4967    0.0000 Na  0  3  0  0  0  0  0  0  0  0  0  0
  1  2  2  0  0  0  0
  2  3  1  0  0  0  0
  3  4  2  0  0  0  0
  4  5  1  0  0  0  0
  5  6  2  0  0  0  0
  1  6  1  0  0  0  0
  4  7  1  0  0  0  0
  7  8  1  0  0  0  0
  8  9  2  0  0  0  0
  9 10  1  0  0  0  0
 10 11  2  0  0  0  0
 11 12  1  0  0  0  0
 12 13  2  0  0  0  0
  8 13  1  0  0  0  0
 12 14  1  0  0  0  0
 14 15  1  0  0  0  0
 15 16  1  0  0  0  0
 16 17  1  0  0  0  0
 14 18  1  0  0  0  0
 18 19  1  0  0  0  0
 19 20  1  0  0  0  0
 10 21  1  0  0  0  0
 21 22  1  0  0  0  0
 22 23  2  0  0  0  0
 23 24  1  0  0  0  0
 24 25  2  0  0  0  0
 25 26  1  0  0  0  0
 26 27  2  0  0  0  0
 22 27  1  0  0  0  0
 25 28  1  0  0  0  0
 28 29  2  0  0  0  0
 29 30  1  0  0  0  0
 30 31  2  0  0  0  0
 31 32  1  0  0  0  0
 32 33  2  0  0  0  0
 33 34  1  0  0  0  0
 34 35  2  0  0  0  0
 30 35  1  0  0  0  0
 33 36  1  0  0  0  0
 36 37  1  0  0  0  0
 37 38  2  0  0  0  0
 38 39  1  0  0  0  0
 39 40  2  0  0  0  0
 40 41  1  0  0  0  0
 41 42  2  0  0  0  0
 37 42  1  0  0  0  0
 41 43  1  0  0  0  0
 43 44  1  0  0  0  0
 44 45  2  0  0  0  0
 45 46  1  0  0  0  0
 46 47  2  0  0  0  0
 47 48  1  0  0  0  0
 48 49  2  0  0  0  0
 44 49  1  0  0  0  0
 39 50  1  0  0  0  0
 50 51  1  0  0  0  0
 51 52  1  0  0  0  0
 52 53  1  0  0  0  0
 50 54  1  0  0  0  0
 54 55  1  0  0  0  0
 55 56  1  0  0  0  0
 31 57  1  0  0  0  0
 57 58  2  0  0  0  0
 57 59  2  0  0  0  0
 57 60  1  0  0  0  0
 24 61  1  0  0  0  0
 61 62  2  0  0  0  0
 61 63  2  0  0  0  0
 61 64  1  0  0  0  0
M  CHG  4  60  -1  64  -1  65   1  66   1
M  END
> <#>
442

> <PLATE>
LAT006

> <ROW>
B

> <COL>
7

> <COORD>
B07

> <LATID>
LAT006B07

> <Supplier>
Sigma

> <Suplier_CAT#>
F-3397

> <Name>
Calcofluor White

> <Concentration_(mM)>
2.5

> <IC50_(µM)>
inactive

> <Yeast_Active?>
+

> <Pubchem_CID>
43030

$$$$
