
  -ISIS-  08130814242D

 10 10  0  0  0  0  0  0  0  0999 V2000
    5.6890   -3.6723    0.0000 C   0  0  0  0  0  0  0  0  0  0  0  0
    6.5814   -3.6723    0.0000 C   0  0  0  0  0  0  0  0  0  0  0  0
    7.0275   -2.8996    0.0000 C   0  0  0  0  0  0  0  0  0  0  0  0
    7.9198   -2.8996    0.0000 C   0  0  0  0  0  0  0  0  0  0  0  0
    8.3660   -3.6723    0.0000 C   0  0  0  0  0  0  0  0  0  0  0  0
    7.9198   -4.4451    0.0000 C   0  0  0  0  0  0  0  0  0  0  0  0
    7.0275   -4.4451    0.0000 C   0  0  0  0  0  0  0  0  0  0  0  0
    5.2429   -2.8996    0.0000 O   0  0  0  0  0  0  0  0  0  0  0  0
    5.2429   -4.4451    0.0000 O   0  0  0  0  0  0  0  0  0  0  0  0
    6.5814   -2.1268    0.0000 Br  0  0  0  0  0  0  0  0  0  0  0  0
  1  2  1  0  0  0  0
  2  3  1  0  0  0  0
  3  4  2  0  0  0  0
  4  5  1  0  0  0  0
  5  6  2  0  0  0  0
  6  7  1  0  0  0  0
  2  7  2  0  0  0  0
  1  8  2  0  0  0  0
  1  9  1  0  0  0  0
  3 10  1  0  0  0  0
M  END
> <#>
494

> <PLATE>
LAT007

> <ROW>
F

> <COL>
3

> <COORD>
F03

> <LATID>
LAT007F03

> <Supplier>
Aldrich

> <Suplier_CAT#>
13,767-7

> <Name>
2-Bromobenzoic Acid

> <Concentration_(mM)>
2.5

> <IC50_(µM)>
>100

> <Yeast_Active?>
-

> <Pubchem_CID>
6940

$$$$
