
  -ISIS-  08130814242D

 23 25  0  0  0  0  0  0  0  0999 V2000
   -1.3000    1.0208    0.0000 C   0  0  0  0  0  0  0  0  0  0  0  0
   -1.3000    1.9458    0.0000 C   0  0  0  0  0  0  0  0  0  0  0  0
   -2.0833    0.5833    0.0000 C   0  0  0  0  0  0  0  0  0  0  0  0
   -2.8625    1.9458    0.0000 C   0  0  3  0  0  0  0  0  0  0  0  0
   -2.0833    2.3833    0.0000 C   0  0  0  0  0  0  0  0  0  0  0  0
   -2.8625    1.0208    0.0000 C   0  0  0  0  0  0  0  0  0  0  0  0
   -0.5000    0.5625    0.0000 C   0  0  0  0  0  0  0  0  0  0  0  0
   -2.0833   -0.3375    0.0000 O   0  0  0  0  0  0  0  0  0  0  0  0
   -0.5000    2.4000    0.0000 O   0  0  0  0  0  0  0  0  0  0  0  0
    2.6542    0.5625    0.0000 N   0  0  0  0  0  0  0  0  0  0  0  0
    0.3000    1.0208    0.0000 N   0  0  0  0  0  0  0  0  0  0  0  0
   -3.6458    2.3833    0.0000 C   0  0  0  0  0  0  0  0  0  0  0  0
    1.8792    1.0000    0.0000 C   0  0  0  0  0  0  0  0  0  0  0  0
    1.1000    0.5625    0.0000 C   0  0  0  0  0  0  0  0  0  0  0  0
    3.4375    1.0000    0.0000 C   0  0  0  0  0  0  0  0  0  0  0  0
   -4.4208    1.9458    0.0000 C   0  0  0  0  0  0  0  0  0  0  0  0
   -3.6458    3.3000    0.0000 C   0  0  0  0  0  0  0  0  0  0  0  0
    1.8792    1.9208    0.0000 C   0  0  0  0  0  0  0  0  0  0  0  0
    3.4375    1.9208    0.0000 C   0  0  0  0  0  0  0  0  0  0  0  0
   -4.4208    3.7458    0.0000 C   0  0  0  0  0  0  0  0  0  0  0  0
   -5.2083    2.3833    0.0000 C   0  0  0  0  0  0  0  0  0  0  0  0
    2.6542    2.3625    0.0000 C   0  0  0  0  0  0  0  0  0  0  0  0
   -5.2083    3.3000    0.0000 C   0  0  0  0  0  0  0  0  0  0  0  0
  2  1  1  0  0  0  0
  3  1  1  0  0  0  0
  4  6  1  0  0  0  0
  5  2  1  0  0  0  0
  6  3  1  0  0  0  0
  7  1  2  0  0  0  0
  8  3  2  0  0  0  0
  9  2  2  0  0  0  0
 10 13  1  0  0  0  0
 11  7  1  0  0  0  0
 12  4  1  0  0  0  0
 13 14  1  0  0  0  0
 14 11  1  0  0  0  0
 15 10  2  0  0  0  0
 16 12  2  0  0  0  0
 17 12  1  0  0  0  0
 18 13  2  0  0  0  0
 19 22  2  0  0  0  0
 20 17  2  0  0  0  0
 21 16  1  0  0  0  0
 22 18  1  0  0  0  0
 23 20  1  0  0  0  0
  5  4  1  0  0  0  0
 15 19  1  0  0  0  0
 23 21  2  0  0  0  0
M  END
> <#>
1405

> <PLATE>
LAT018

> <ROW>
E

> <COL>
7

> <COORD>
E07

> <LATID>
LAT018E07

> <Supplier>
Chembridge

> <Suplier_CAT#>
5666617

> <Name>
Novel

> <Sec_Name>
209_D07

> <Concentration_(mM)>
2.5

> <IC50_(µM)>
50

> <Yeast_Active?>
-

> <Pubchem_CID>
867717

$$$$
