
  -ISIS-  08130814242D

 32 36  0  0  0  0  0  0  0  0999 V2000
   -2.8333   -0.6292    0.0000 N   0  0  3  0  0  0  0  0  0  0  0  0
   -3.1958   -0.8292    0.0000 C   0  0  0  0  0  0  0  0  0  0  0  0
   -2.5333   -0.9042    0.0000 C   0  0  0  0  0  0  0  0  0  0  0  0
   -2.4958    0.4708    0.0000 N   0  0  3  0  0  0  0  0  0  0  0  0
   -2.4708    0.0333    0.0000 C   0  0  0  0  0  0  0  0  0  0  0  0
   -2.8500    0.6708    0.0000 C   0  0  0  0  0  0  0  0  0  0  0  0
   -2.8333   -0.1875    0.0000 C   0  0  0  0  0  0  0  0  0  0  0  0
   -3.1125   -1.2500    0.0000 C   0  0  0  0  0  0  0  0  0  0  0  0
   -2.7125   -1.2667    0.0000 C   0  0  0  0  0  0  0  0  0  0  0  0
   -2.8500    1.1125    0.0000 C   0  0  0  0  0  0  0  0  0  0  0  0
   -2.4958    1.3125    0.0000 C   0  0  3  0  0  0  0  0  0  0  0  0
   -2.1333    0.6958    0.0000 C   0  0  3  0  0  0  0  0  0  0  0  0
   -2.1333    1.0958    0.0000 C   0  0  0  0  0  0  0  0  0  0  0  0
   -2.4708    1.7500    0.0000 N   0  0  0  0  0  0  0  0  0  0  0  0
   -3.6125   -0.6667    0.0000 O   0  0  0  0  0  0  0  0  0  0  0  0
   -2.0958   -0.8667    0.0000 O   0  0  0  0  0  0  0  0  0  0  0  0
   -2.1125   -0.1667    0.0000 O   0  0  0  0  0  0  0  0  0  0  0  0
   -2.8333    1.9708    0.0000 C   0  0  0  0  0  0  0  0  0  0  0  0
   -3.2333    0.4708    0.0000 C   0  0  0  0  0  0  0  0  0  0  0  0
   -3.2333    1.3125    0.0000 C   0  0  0  0  0  0  0  0  0  0  0  0
   -3.3500   -1.6042    0.0000 C   0  0  0  0  0  0  0  0  0  0  0  0
   -2.5125   -1.6500    0.0000 C   0  0  0  0  0  0  0  0  0  0  0  0
   -1.7333    0.4708    0.0000 C   0  0  0  0  0  0  0  0  0  0  0  0
   -3.1958    1.7500    0.0000 C   0  0  0  0  0  0  0  0  0  0  0  0
   -2.8125    2.3958    0.0000 C   0  0  0  0  0  0  0  0  0  0  0  0
   -3.5958    0.6958    0.0000 C   0  0  0  0  0  0  0  0  0  0  0  0
   -3.5958    1.0958    0.0000 C   0  0  0  0  0  0  0  0  0  0  0  0
   -2.7500   -2.0042    0.0000 C   0  0  0  0  0  0  0  0  0  0  0  0
   -3.1500   -1.9667    0.0000 C   0  0  0  0  0  0  0  0  0  0  0  0
   -3.5500    1.9708    0.0000 C   0  0  0  0  0  0  0  0  0  0  0  0
   -3.1958    2.6125    0.0000 C   0  0  0  0  0  0  0  0  0  0  0  0
   -3.5500    2.3958    0.0000 C   0  0  0  0  0  0  0  0  0  0  0  0
  2  1  1  0  0  0  0
  3  1  1  0  0  0  0
  4  5  1  0  0  0  0
  5  7  1  0  0  0  0
  6  4  1  0  0  0  0
  7  1  1  0  0  0  0
  8  2  1  0  0  0  0
  9  3  1  0  0  0  0
 10  6  2  0  0  0  0
 11 13  1  0  0  0  0
 12  4  1  0  0  0  0
 13 12  1  0  0  0  0
 14 11  1  0  0  0  0
 15  2  2  0  0  0  0
 16  3  2  0  0  0  0
 17  5  2  0  0  0  0
 18 14  1  0  0  0  0
 19  6  1  0  0  0  0
 20 10  1  0  0  0  0
 21  8  1  0  0  0  0
 22  9  1  0  0  0  0
 23 12  1  0  0  0  0
 24 18  1  0  0  0  0
 25 18  2  0  0  0  0
 26 19  2  0  0  0  0
 27 26  1  0  0  0  0
 28 22  2  0  0  0  0
 29 21  2  0  0  0  0
 30 24  2  0  0  0  0
 31 25  1  0  0  0  0
 32 31  2  0  0  0  0
  8  9  2  0  0  0  0
 29 28  1  0  0  0  0
 11 10  1  0  0  0  0
 20 27  2  0  0  0  0
 32 30  1  0  0  0  0
M  END
> <#>
1840

> <PLATE>
LAT023

> <ROW>
H

> <COL>
11

> <COORD>
H11

> <LATID>
LAT023H11

> <Supplier>
Chembridge

> <Suplier_CAT#>
5696490

> <Name>
Novel

> <Sec_Name>
221_D10

> <Concentration_(mM)>
2.5

> <IC50_(µM)>
50

> <Yeast_Active?>
-

> <Pubchem_CID>
NULL

$$$$
