
  -ISIS-  08130814242D

 27 29  0  0  0  0  0  0  0  0999 V2000
    5.5375   -3.3542    0.0000 N   0  0  0  0  0  0  0  0  0  0  0  0
    4.8917   -2.2250    0.0000 C   0  0  0  0  0  0  0  0  0  0  0  0
    4.8917   -2.9792    0.0000 C   0  0  0  0  0  0  0  0  0  0  0  0
    6.1917   -2.9792    0.0000 C   0  0  0  0  0  0  0  0  0  0  0  0
    2.2792   -2.2292    0.0000 C   0  0  0  0  0  0  0  0  0  0  0  0
    1.6292   -1.8542    0.0000 C   0  0  0  0  0  0  0  0  0  0  0  0
    5.5375   -1.8417    0.0000 C   0  0  0  0  0  0  0  0  0  0  0  0
    6.1917   -2.2250    0.0000 C   0  0  0  0  0  0  0  0  0  0  0  0
    0.9792   -2.2292    0.0000 C   0  0  0  0  0  0  0  0  0  0  0  0
    0.3292   -1.8542    0.0000 C   0  0  0  0  0  0  0  0  0  0  0  0
    3.5875   -2.2250    0.0000 N   0  0  0  0  0  0  0  0  0  0  0  0
    4.2375   -1.8500    0.0000 C   0  0  0  0  0  0  0  0  0  0  0  0
    2.9292   -1.8500    0.0000 N   0  0  0  0  0  0  0  0  0  0  0  0
    0.3292   -1.1000    0.0000 C   0  0  0  0  0  0  0  0  0  0  0  0
    6.8375   -3.3542    0.0000 C   0  0  0  0  0  0  0  0  0  0  0  0
    2.2875   -2.9792    0.0000 O   0  0  0  0  0  0  0  0  0  0  0  0
    1.6292   -1.1000    0.0000 C   0  0  0  0  0  0  0  0  0  0  0  0
    0.9792   -0.7250    0.0000 C   0  0  0  0  0  0  0  0  0  0  0  0
    6.8417   -1.8417    0.0000 C   0  0  0  0  0  0  0  0  0  0  0  0
    4.2375   -3.3542    0.0000 Cl  0  0  0  0  0  0  0  0  0  0  0  0
    7.4917   -2.9792    0.0000 C   0  0  0  0  0  0  0  0  0  0  0  0
    7.4917   -2.2292    0.0000 C   0  0  0  0  0  0  0  0  0  0  0  0
   -0.3208   -2.2292    0.0000 O   0  0  0  0  0  0  0  0  0  0  0  0
   -0.3208   -0.7167    0.0000 O   0  0  0  0  0  0  0  0  0  0  0  0
    8.1417   -3.3625    0.0000 C   0  0  0  0  0  0  0  0  0  0  0  0
   -0.9708   -1.8500    0.0000 C   0  0  0  0  0  0  0  0  0  0  0  0
   -0.3208    0.0333    0.0000 C   0  0  0  0  0  0  0  0  0  0  0  0
  2  3  1  0  0  0  0
  3  1  2  0  0  0  0
  4  1  1  0  0  0  0
  5 13  1  0  0  0  0
  6  5  1  0  0  0  0
  7  8  1  0  0  0  0
  8  4  1  0  0  0  0
  9  6  1  0  0  0  0
 10  9  2  0  0  0  0
 11 12  2  0  0  0  0
 12  2  1  0  0  0  0
 13 11  1  0  0  0  0
 14 18  2  0  0  0  0
 15  4  2  0  0  0  0
 16  5  2  0  0  0  0
 17  6  2  0  0  0  0
 18 17  1  0  0  0  0
 19  8  2  0  0  0  0
 20  3  1  0  0  0  0
 21 15  1  0  0  0  0
 22 21  2  0  0  0  0
 23 10  1  0  0  0  0
 24 14  1  0  0  0  0
 25 21  1  0  0  0  0
 26 23  1  0  0  0  0
 27 24  1  0  0  0  0
  2  7  2  0  0  0  0
 19 22  1  0  0  0  0
 10 14  1  0  0  0  0
M  END
> <#>
1680

> <PLATE>
LAT021

> <ROW>
H

> <COL>
11

> <COORD>
H11

> <LATID>
LAT021H11

> <Supplier>
Chembridge

> <Suplier_CAT#>
5732389

> <Name>
Novel

> <Concentration_(mM)>
2.5

> <IC50_(µM)>
inactive

> <Yeast_Active?>
-

> <Pubchem_CID>
1362541

$$$$
