
  -ISIS-  08130814242D

 20 22  0  0  0  0  0  0  0  0999 V2000
   11.1726   -2.0848    0.0000 O   0  0  0  0  0  0  0  0  0  0  0  0
    9.9652   -1.7612    0.0000 C   0  0  0  0  0  0  0  0  0  0  0  0
    9.1287   -2.6902    0.0000 C   0  0  2  0  0  0  0  0  0  0  0  0
    9.3886   -3.9128    0.0000 C   0  0  1  0  0  0  0  0  0  0  0  0
   10.5306   -4.4213    0.0000 O   0  0  0  0  0  0  0  0  0  0  0  0
    8.3061   -4.5378    0.0000 C   0  0  1  0  0  0  0  0  0  0  0  0
    8.1754   -5.7810    0.0000 O   0  0  0  0  0  0  0  0  0  0  0  0
    7.3772   -3.7014    0.0000 C   0  0  1  0  0  0  0  0  0  0  0  0
    7.8856   -2.5595    0.0000 O   0  0  0  0  0  0  0  0  0  0  0  0
    6.1545   -3.9613    0.0000 N   0  0  3  0  0  0  0  0  0  0  0  0
    5.6461   -5.1033    0.0000 C   0  0  0  0  0  0  0  0  0  0  0  0
    4.4029   -4.9726    0.0000 N   0  0  0  0  0  0  0  0  0  0  0  0
    4.1430   -3.7499    0.0000 C   0  0  0  0  0  0  0  0  0  0  0  0
    3.0605   -3.1249    0.0000 C   0  0  0  0  0  0  0  0  0  0  0  0
    1.9780   -3.7499    0.0000 O   0  0  0  0  0  0  0  0  0  0  0  0
    3.0605   -1.8749    0.0000 N   0  0  0  0  0  0  0  0  0  0  0  0
    4.1430   -1.2499    0.0000 C   0  0  0  0  0  0  0  0  0  0  0  0
    4.1430    0.0001    0.0000 N   0  0  0  0  0  0  0  0  0  0  0  0
    5.2256   -1.8749    0.0000 N   0  0  0  0  0  0  0  0  0  0  0  0
    5.2256   -3.1249    0.0000 C   0  0  0  0  0  0  0  0  0  0  0  0
  1  2  1  0  0  0  0
  3  2  1  6  0  0  0
  3  4  1  0  0  0  0
  4  5  1  1  0  0  0
  4  6  1  0  0  0  0
  6  7  1  1  0  0  0
  6  8  1  0  0  0  0
  8  9  1  0  0  0  0
  3  9  1  0  0  0  0
  8 10  1  6  0  0  0
 10 11  1  0  0  0  0
 11 12  2  0  0  0  0
 12 13  1  0  0  0  0
 13 14  1  0  0  0  0
 14 15  2  0  0  0  0
 14 16  1  0  0  0  0
 16 17  1  0  0  0  0
 17 18  1  0  0  0  0
 17 19  2  0  0  0  0
 19 20  1  0  0  0  0
 13 20  2  0  0  0  0
 10 20  1  0  0  0  0
M  END
> <#>
295

> <PLATE>
LAT004

> <ROW>
G

> <COL>
8

> <COORD>
G08

> <LATID>
LAT004G08

> <Supplier>
Fluka

> <Suplier_CAT#>
51050

> <Name>
Guanosine

> <Concentration_(mM)>
2.5

> <IC50_(µM)>
inactive

> <Yeast_Active?>
-

> <Pubchem_CID>
6802

$$$$
