
  -ISIS-  08130814242D

 23 24  0  0  0  0  0  0  0  0999 V2000
   -0.7125    3.7750    0.0000 C   0  0  0  0  0  0  0  0  0  0  0  0
   -1.3625    3.4000    0.0000 N   0  0  0  0  0  0  0  0  0  0  0  0
   -0.0625    3.4000    0.0000 C   0  0  3  0  0  0  0  0  0  0  0  0
    0.5875    3.7750    0.0000 O   0  0  0  0  0  0  0  0  0  0  0  0
    3.1875    2.2750    0.0000 C   0  0  3  0  0  0  0  0  0  0  0  0
    2.5375    2.6500    0.0000 C   0  0  0  0  0  0  0  0  0  0  0  0
   -3.3083    3.7750    0.0000 N   0  0  0  0  0  0  0  0  0  0  0  0
   -0.7125    4.5167    0.0000 O   0  0  0  0  0  0  0  0  0  0  0  0
    2.5375    3.4000    0.0000 C   0  0  0  0  0  0  0  0  0  0  0  0
    1.8875    2.2750    0.0000 C   0  0  0  0  0  0  0  0  0  0  0  0
    1.2375    3.4000    0.0000 C   0  0  0  0  0  0  0  0  0  0  0  0
   -2.0125    3.7750    0.0000 C   0  0  0  0  0  0  0  0  0  0  0  0
   -2.6583    3.4000    0.0000 C   0  0  0  0  0  0  0  0  0  0  0  0
    1.8875    3.7750    0.0000 C   0  0  0  0  0  0  0  0  0  0  0  0
    1.2375    2.6500    0.0000 C   0  0  0  0  0  0  0  0  0  0  0  0
    2.9917    1.5500    0.0000 C   0  0  0  0  0  0  0  0  0  0  0  0
    3.8917    2.0208    0.0000 C   0  0  0  0  0  0  0  0  0  0  0  0
    3.5042    2.9583    0.0000 C   0  0  0  0  0  0  0  0  0  0  0  0
   -3.9583    3.4000    0.0000 C   0  0  0  0  0  0  0  0  0  0  0  0
   -0.0625    2.6500    0.0000 C   0  0  0  0  0  0  0  0  0  0  0  0
   -2.6583    2.6500    0.0000 C   0  0  0  0  0  0  0  0  0  0  0  0
   -3.9583    2.6500    0.0000 C   0  0  0  0  0  0  0  0  0  0  0  0
   -3.3083    2.2750    0.0000 C   0  0  0  0  0  0  0  0  0  0  0  0
  2  1  1  0  0  0  0
  3  1  1  0  0  0  0
  4  3  1  0  0  0  0
  5  6  1  0  0  0  0
  6 10  1  0  0  0  0
  7 13  1  0  0  0  0
  8  1  2  0  0  0  0
  9 14  1  0  0  0  0
 10 15  2  0  0  0  0
 11  4  1  0  0  0  0
 12  2  1  0  0  0  0
 13 12  1  0  0  0  0
 14 11  2  0  0  0  0
 15 11  1  0  0  0  0
 16  5  1  0  0  0  0
 17  5  1  0  0  0  0
 18  5  1  0  0  0  0
 19  7  2  0  0  0  0
 20  3  1  0  0  0  0
 21 13  2  0  0  0  0
 22 23  2  0  0  0  0
 23 21  1  0  0  0  0
  9  6  2  0  0  0  0
 19 22  1  0  0  0  0
M  END
> <#>
1544

> <PLATE>
LAT020

> <ROW>
H

> <COL>
4

> <COORD>
H04

> <LATID>
LAT020H04

> <Supplier>
Chembridge

> <Suplier_CAT#>
7902425

> <Name>
Novel

> <Concentration_(mM)>
2.5

> <IC50_(µM)>
>100

> <Yeast_Active?>
-

> <Pubchem_CID>
1301652

$$$$
