
  -ISIS-  08130814242D

 25 27  0  0  0  0  0  0  0  0999 V2000
    0.7667    0.0208    0.0000 N   0  0  0  0  0  0  0  0  0  0  0  0
    1.6875    0.0208    0.0000 C   0  0  0  0  0  0  0  0  0  0  0  0
   -0.6333    0.8208    0.0000 C   0  0  0  0  0  0  0  0  0  0  0  0
    0.3000    0.8208    0.0000 O   0  0  0  0  0  0  0  0  0  0  0  0
   -1.0958    0.0208    0.0000 N   0  0  0  0  0  0  0  0  0  0  0  0
    2.1500   -0.7667    0.0000 C   0  0  0  0  0  0  0  0  0  0  0  0
    3.0792   -0.7667    0.0000 N   0  0  0  0  0  0  0  0  0  0  0  0
    2.1500    0.8125    0.0000 C   0  0  0  0  0  0  0  0  0  0  0  0
   -1.1000    1.6208    0.0000 O   0  0  0  0  0  0  0  0  0  0  0  0
   -2.0208    0.0208    0.0000 C   0  0  0  0  0  0  0  0  0  0  0  0
   -3.9000    0.0208    0.0000 C   0  0  0  0  0  0  0  0  0  0  0  0
   -4.8208    0.0208    0.0000 Cl  0  0  0  0  0  0  0  0  0  0  0  0
   -2.4958    0.8333    0.0000 C   0  0  0  0  0  0  0  0  0  0  0  0
   -2.4958   -0.7875    0.0000 C   0  0  0  0  0  0  0  0  0  0  0  0
   -3.4333    0.8333    0.0000 C   0  0  0  0  0  0  0  0  0  0  0  0
   -3.4333   -0.7875    0.0000 C   0  0  0  0  0  0  0  0  0  0  0  0
    3.5375   -1.5667    0.0000 C   0  0  0  0  0  0  0  0  0  0  0  0
    1.6875   -1.5792    0.0000 C   0  0  0  0  0  0  0  0  0  0  0  0
    1.7000    1.6208    0.0000 C   0  0  0  0  0  0  0  0  0  0  0  0
    3.0792    0.8125    0.0000 C   0  0  0  0  0  0  0  0  0  0  0  0
    3.0792   -2.3792    0.0000 C   0  0  0  0  0  0  0  0  0  0  0  0
    2.1542    2.4208    0.0000 C   0  0  0  0  0  0  0  0  0  0  0  0
    3.5500    1.6208    0.0000 C   0  0  0  0  0  0  0  0  0  0  0  0
    2.1500   -2.3792    0.0000 C   0  0  0  0  0  0  0  0  0  0  0  0
    3.0875    2.4208    0.0000 C   0  0  0  0  0  0  0  0  0  0  0  0
  2  1  2  0  0  0  0
  3  4  1  0  0  0  0
  4  1  1  0  0  0  0
  5  3  1  0  0  0  0
  6  2  1  0  0  0  0
  7  6  2  0  0  0  0
  8  2  1  0  0  0  0
  9  3  2  0  0  0  0
 10  5  1  0  0  0  0
 11 16  1  0  0  0  0
 12 11  1  0  0  0  0
 13 10  2  0  0  0  0
 14 10  1  0  0  0  0
 15 13  1  0  0  0  0
 16 14  2  0  0  0  0
 17  7  1  0  0  0  0
 18  6  1  0  0  0  0
 19  8  1  0  0  0  0
 20  8  2  0  0  0  0
 21 24  1  0  0  0  0
 22 19  2  0  0  0  0
 23 20  1  0  0  0  0
 24 18  2  0  0  0  0
 25 23  2  0  0  0  0
 25 22  1  0  0  0  0
 17 21  2  0  0  0  0
 15 11  2  0  0  0  0
M  END
> <#>
2003

> <PLATE>
LAT026

> <ROW>
C

> <COL>
2

> <COORD>
C02

> <LATID>
LAT026C02

> <Supplier>
Chembridge

> <Suplier_CAT#>
5575316

> <Sec_Name>
178_G04

> <Concentration_(mM)>
2.5

> <IC50_(µM)>
>100

> <Yeast_Active?>
-

> <Pubchem_CID>
1350243

$$$$
