
  -ISIS-  08130814242D

 25 26  0  0  0  0  0  0  0  0999 V2000
   -0.5208    0.4833    0.0000 C   0  0  0  0  0  0  0  0  0  0  0  0
    0.2875    1.8958    0.0000 N   0  0  0  0  0  0  0  0  0  0  0  0
   -1.3333    1.8958    0.0000 N   0  0  0  0  0  0  0  0  0  0  0  0
    0.2875    0.9500    0.0000 C   0  0  0  0  0  0  0  0  0  0  0  0
   -1.3333    0.9500    0.0000 C   0  0  0  0  0  0  0  0  0  0  0  0
   -0.5208    2.3625    0.0000 C   0  0  0  0  0  0  0  0  0  0  0  0
   -0.5208   -0.4500    0.0000 C   0  0  0  0  0  0  0  0  0  0  0  0
    0.2792   -0.9042    0.0000 C   0  0  0  0  0  0  0  0  0  0  0  0
    1.1000   -2.3292    0.0000 C   0  0  0  0  0  0  0  0  0  0  0  0
    1.9167   -1.8500    0.0000 C   0  0  0  0  0  0  0  0  0  0  0  0
    0.2792   -1.8500    0.0000 C   0  0  0  0  0  0  0  0  0  0  0  0
   -0.5208    3.2958    0.0000 S   0  0  0  0  0  0  0  0  0  0  0  0
    1.1000    0.4833    0.0000 O   0  0  0  0  0  0  0  0  0  0  0  0
   -2.1458    0.4833    0.0000 O   0  0  0  0  0  0  0  0  0  0  0  0
    2.7375   -2.3000    0.0000 N   0  0  3  0  0  0  0  0  0  0  0  0
    1.0875   -0.4375    0.0000 C   0  0  0  0  0  0  0  0  0  0  0  0
    1.9042   -0.9042    0.0000 C   0  0  0  0  0  0  0  0  0  0  0  0
   -0.5333   -2.3000    0.0000 O   0  0  0  0  0  0  0  0  0  0  0  0
    2.7500   -3.2292    0.0000 C   0  0  0  0  0  0  0  0  0  0  0  0
    3.5292   -1.8167    0.0000 C   0  0  0  0  0  0  0  0  0  0  0  0
   -1.3208   -1.8375    0.0000 C   0  0  0  0  0  0  0  0  0  0  0  0
   -2.1208   -2.3042    0.0000 C   0  0  0  0  0  0  0  0  0  0  0  0
    3.5042   -0.8875    0.0000 C   0  0  0  0  0  0  0  0  0  0  0  0
    3.5542   -3.6792    0.0000 C   0  0  0  0  0  0  0  0  0  0  0  0
   -2.9208   -1.8500    0.0000 C   0  0  0  0  0  0  0  0  0  0  0  0
  2  4  1  0  0  0  0
  3  5  1  0  0  0  0
  4  1  1  0  0  0  0
  5  1  1  0  0  0  0
  6  3  1  0  0  0  0
  7  1  2  0  0  0  0
  8  7  1  0  0  0  0
  9 11  2  0  0  0  0
 10 17  2  0  0  0  0
 11  8  1  0  0  0  0
 12  6  2  0  0  0  0
 13  4  2  0  0  0  0
 14  5  2  0  0  0  0
 15 10  1  0  0  0  0
 16  8  2  0  0  0  0
 17 16  1  0  0  0  0
 18 11  1  0  0  0  0
 19 15  1  0  0  0  0
 20 15  1  0  0  0  0
 21 18  1  0  0  0  0
 22 21  1  0  0  0  0
 23 20  1  0  0  0  0
 24 19  1  0  0  0  0
 25 22  1  0  0  0  0
  6  2  1  0  0  0  0
  9 10  1  0  0  0  0
M  END
> <#>
1775

> <PLATE>
LAT023

> <ROW>
G

> <COL>
3

> <COORD>
G03

> <LATID>
LAT023G03

> <Supplier>
Chembridge

> <Suplier_CAT#>
5537124

> <Name>
Novel

> <Sec_Name>
157_E03

> <Concentration_(mM)>
2.5

> <IC50_(µM)>
100

> <Yeast_Active?>
-

> <Pubchem_CID>
2053600

$$$$
