
  -ISIS-  08130814242D

 16 16  0  0  0  0  0  0  0  0999 V2000
    1.6292    0.0958    0.0000 C   0  0  0  0  0  0  0  0  0  0  0  0
    2.0417    0.8083    0.0000 C   0  0  0  0  0  0  0  0  0  0  0  0
    2.0417   -0.6250    0.0000 C   0  0  0  0  0  0  0  0  0  0  0  0
    1.6292    1.5208    0.0000 O   0  0  0  0  0  0  0  0  0  0  0  0
    2.8667    0.8083    0.0000 N   0  0  0  0  0  0  0  0  0  0  0  0
    0.8042    0.0958    0.0000 C   0  0  0  0  0  0  0  0  0  0  0  0
    2.8667   -0.6250    0.0000 O   0  0  0  0  0  0  0  0  0  0  0  0
    1.6292   -1.3375    0.0000 C   0  0  0  0  0  0  0  0  0  0  0  0
    3.2792   -1.3417    0.0000 C   0  0  0  0  0  0  0  0  0  0  0  0
    4.1042   -1.3417    0.0000 C   0  0  0  0  0  0  0  0  0  0  0  0
    5.7500   -2.7750    0.0000 C   0  0  0  0  0  0  0  0  0  0  0  0
    5.3375   -2.0542    0.0000 C   0  0  0  0  0  0  0  0  0  0  0  0
    4.5125   -2.0542    0.0000 C   0  0  0  0  0  0  0  0  0  0  0  0
    0.3917   -0.6250    0.0000 C   0  0  0  0  0  0  0  0  0  0  0  0
    6.5750   -2.7750    0.0000 C   0  0  0  0  0  0  0  0  0  0  0  0
    0.8042   -1.3375    0.0000 C   0  0  0  0  0  0  0  0  0  0  0  0
  2  1  1  0  0  0  0
  3  1  2  0  0  0  0
  4  2  2  0  0  0  0
  5  2  1  0  0  0  0
  6  1  1  0  0  0  0
  7  3  1  0  0  0  0
  8  3  1  0  0  0  0
  9  7  1  0  0  0  0
 10  9  1  0  0  0  0
 11 12  1  0  0  0  0
 12 13  1  0  0  0  0
 13 10  1  0  0  0  0
 14  6  2  0  0  0  0
 15 11  1  0  0  0  0
 16 14  1  0  0  0  0
  8 16  2  0  0  0  0
M  END
> <#>
71

> <PLATE>
LAT001

> <ROW>
G

> <COL>
10

> <COORD>
G10

> <LATID>
LAT001G10

> <Supplier>
Microsource

> <Suplier_CAT#>
01503403

> <Name>
Exalamide

> <Concentration_(mM)>
2.5

> <IC50_(µM)>
39

> <Yeast_Active?>
-

> <Pubchem_CID>
3316

> <Description>
Antifungal

$$$$
