
  -ISIS-  08130814242D

 25 28  0  0  0  0  0  0  0  0999 V2000
   -1.6708    4.3792    0.0000 C   0  0  0  0  0  0  0  0  0  0  0  0
   -3.4125    7.3000    0.0000 C   0  0  0  0  0  0  0  0  0  0  0  0
    1.6667   -1.4542    0.0000 N   0  0  0  0  0  0  0  0  0  0  0  0
   -1.6708   -1.5167    0.0000 C   0  0  0  0  0  0  0  0  0  0  0  0
   -3.3500    1.4625    0.0000 C   0  0  0  0  0  0  0  0  0  0  0  0
    1.6667    4.3792    0.0000 C   0  0  0  0  0  0  0  0  0  0  0  0
    3.3500    1.4625    0.0000 C   0  0  0  0  0  0  0  0  0  0  0  0
   -6.7792    7.3000    0.0000 N   0  0  0  0  0  0  0  0  0  0  0  0
   -1.7458   10.2167    0.0000 O   0  0  0  0  0  0  0  0  0  0  0  0
   -3.4125   -4.3792    0.0000 C   0  0  0  0  0  0  0  0  0  0  0  0
  -13.3292   13.0375    0.0000 N   0  0  0  0  0  0  0  0  0  0  0  0
   -8.4000   10.1667    0.0000 C   0  0  0  0  0  0  0  0  0  0  0  0
  -11.7042   10.1667    0.0000 C   0  0  0  0  0  0  0  0  0  0  0  0
    3.3500    7.3000    0.0000 C   0  0  0  0  0  0  0  0  0  0  0  0
    6.7042    1.4625    0.0000 C   0  0  0  0  0  0  0  0  0  0  0  0
  -11.7042   16.0000    0.0000 C   0  0  0  0  0  0  0  0  0  0  0  0
   -6.7667   -4.3792    0.0000 C   0  0  0  0  0  0  0  0  0  0  0  0
   -1.7458   -7.3000    0.0000 C   0  0  0  0  0  0  0  0  0  0  0  0
   -6.7792   13.0375    0.0000 C   0  0  0  0  0  0  0  0  0  0  0  0
   -8.4000   16.0000    0.0000 C   0  0  0  0  0  0  0  0  0  0  0  0
    6.7042    7.3000    0.0000 C   0  0  0  0  0  0  0  0  0  0  0  0
    8.3875    4.3792    0.0000 C   0  0  0  0  0  0  0  0  0  0  0  0
   -8.4417   -7.2375    0.0000 C   0  0  0  0  0  0  0  0  0  0  0  0
   -3.4125  -10.2167    0.0000 C   0  0  0  0  0  0  0  0  0  0  0  0
   -6.7667  -10.1542    0.0000 C   0  0  0  0  0  0  0  0  0  0  0  0
  2  1  1  0  0  0  0
  3  7  2  0  0  0  0
  4  5  2  0  0  0  0
  5  1  1  0  0  0  0
  6  1  2  0  0  0  0
  7  6  1  0  0  0  0
  8  2  1  0  0  0  0
  9  2  2  0  0  0  0
 10  4  1  0  0  0  0
 11 13  1  0  0  0  0
 12  8  1  0  0  0  0
 13 12  2  0  0  0  0
 14  6  1  0  0  0  0
 15  7  1  0  0  0  0
 16 20  1  0  0  0  0
 17 10  1  0  0  0  0
 18 10  2  0  0  0  0
 19 12  1  0  0  0  0
 20 19  2  0  0  0  0
 21 14  2  0  0  0  0
 22 21  1  0  0  0  0
 23 17  2  0  0  0  0
 24 18  1  0  0  0  0
 25 24  2  0  0  0  0
  3  4  1  0  0  0  0
 15 22  2  0  0  0  0
 25 23  1  0  0  0  0
 16 11  2  0  0  0  0
M  END
> <#>
1839

> <PLATE>
LAT023

> <ROW>
G

> <COL>
11

> <COORD>
G11

> <LATID>
LAT023G11

> <Supplier>
Chembridge

> <Suplier_CAT#>
5693369

> <Name>
Novel

> <Sec_Name>
222_H06

> <Concentration_(mM)>
2.5

> <IC50_(µM)>
9

> <Yeast_Active?>
-

> <Pubchem_CID>
786367

$$$$
