
  -ISIS-  08130814242D

 26 27  0  0  0  0  0  0  0  0999 V2000
    3.3417   -4.0792    0.0000 S   0  0  3  0  0  0  0  0  0  0  0  0
    2.6292   -4.4875    0.0000 N   0  0  0  0  0  0  0  0  0  0  0  0
    4.0625   -3.6667    0.0000 C   0  0  0  0  0  0  0  0  0  0  0  0
    3.7542   -4.7917    0.0000 O   0  0  0  0  0  0  0  0  0  0  0  0
    2.9417   -3.3625    0.0000 O   0  0  0  0  0  0  0  0  0  0  0  0
    7.6292   -2.4167    0.0000 C   0  0  0  0  0  0  0  0  0  0  0  0
    8.3500   -2.8250    0.0000 N   0  0  0  0  0  0  0  0  0  0  0  0
    9.7542   -3.6542    0.0000 N   0  0  0  0  0  0  0  0  0  0  0  0
    7.6292   -1.5917    0.0000 O   0  0  0  0  0  0  0  0  0  0  0  0
    4.0625   -2.8375    0.0000 C   0  0  0  0  0  0  0  0  0  0  0  0
    4.7750   -4.0792    0.0000 C   0  0  0  0  0  0  0  0  0  0  0  0
    9.7667   -2.8292    0.0000 C   0  0  0  0  0  0  0  0  0  0  0  0
    6.9167   -2.8292    0.0000 C   0  0  0  0  0  0  0  0  0  0  0  0
    1.9167   -4.0667    0.0000 C   0  0  0  0  0  0  0  0  0  0  0  0
    9.0542   -2.4167    0.0000 C   0  0  0  0  0  0  0  0  0  0  0  0
    5.4917   -2.8375    0.0000 C   0  0  0  0  0  0  0  0  0  0  0  0
    5.4917   -3.6667    0.0000 C   0  0  0  0  0  0  0  0  0  0  0  0
    4.7750   -2.4250    0.0000 C   0  0  0  0  0  0  0  0  0  0  0  0
    6.2042   -2.4167    0.0000 C   0  0  0  0  0  0  0  0  0  0  0  0
   10.4667   -4.0625    0.0000 C   0  0  0  0  0  0  0  0  0  0  0  0
    1.2000   -4.4667    0.0000 C   0  0  3  0  0  0  0  0  0  0  0  0
   10.4667   -2.4167    0.0000 C   0  0  0  0  0  0  0  0  0  0  0  0
    0.4875   -4.0542    0.0000 C   0  0  0  0  0  0  0  0  0  0  0  0
    1.1917   -5.2917    0.0000 C   0  0  0  0  0  0  0  0  0  0  0  0
   11.1792   -3.6500    0.0000 C   0  0  0  0  0  0  0  0  0  0  0  0
   11.1792   -2.8250    0.0000 C   0  0  0  0  0  0  0  0  0  0  0  0
  2  1  1  0  0  0  0
  3  1  1  0  0  0  0
  4  1  2  0  0  0  0
  5  1  2  0  0  0  0
  6 13  1  0  0  0  0
  7  6  1  0  0  0  0
  8 12  2  0  0  0  0
  9  6  2  0  0  0  0
 10  3  2  0  0  0  0
 11  3  1  0  0  0  0
 12 15  1  0  0  0  0
 13 19  1  0  0  0  0
 14  2  1  0  0  0  0
 15  7  1  0  0  0  0
 16 17  1  0  0  0  0
 17 11  2  0  0  0  0
 18 10  1  0  0  0  0
 19 16  1  0  0  0  0
 20  8  1  0  0  0  0
 21 14  1  0  0  0  0
 22 12  1  0  0  0  0
 23 21  1  0  0  0  0
 24 21  1  0  0  0  0
 25 26  1  0  0  0  0
 26 22  2  0  0  0  0
 16 18  2  0  0  0  0
 20 25  2  0  0  0  0
M  END
> <#>
1533

> <PLATE>
LAT020

> <ROW>
E

> <COL>
3

> <COORD>
E03

> <LATID>
LAT020E03

> <Supplier>
Chembridge

> <Suplier_CAT#>
7742908

> <Name>
Novel

> <Concentration_(mM)>
2.5

> <IC50_(µM)>
>100

> <Yeast_Active?>
-

> <Pubchem_CID>
NULL

$$$$
