
  -ISIS-  08130814242D

 13 14  0  0  0  0  0  0  0  0999 V2000
   -0.0625   -1.9500    0.0000 C   0  0  0  0  0  0  0  0  0  0  0  0
   -0.4458   -0.7667    0.0000 C   0  0  0  0  0  0  0  0  0  0  0  0
   -0.9000   -2.8667    0.0000 C   0  0  0  0  0  0  0  0  0  0  0  0
   -1.6625   -0.5042    0.0000 C   0  0  0  0  0  0  0  0  0  0  0  0
   -2.1000   -2.5875    0.0000 C   0  0  0  0  0  0  0  0  0  0  0  0
   -2.5000   -1.4292    0.0000 C   0  0  0  0  0  0  0  0  0  0  0  0
    1.1500   -1.9875    0.0000 C   0  0  0  0  0  0  0  0  0  0  0  0
    0.6042   -0.0500    0.0000 C   0  0  0  0  0  0  0  0  0  0  0  0
    1.6000   -0.8042    0.0000 C   0  0  0  0  0  0  0  0  0  0  0  0
    1.8000   -3.0375    0.0000 O   0  0  0  0  0  0  0  0  0  0  0  0
   -2.0458    0.6708    0.0000 Cl  0  0  0  0  0  0  0  0  0  0  0  0
   -2.9458   -3.5292    0.0000 Cl  0  0  0  0  0  0  0  0  0  0  0  0
   -0.5458   -4.0667    0.0000 O   0  0  0  0  0  0  0  0  0  0  0  0
  2  1  2  0  0  0  0
  3  1  1  0  0  0  0
  4  2  1  0  0  0  0
  5  3  2  0  0  0  0
  6  5  1  0  0  0  0
  7  1  1  0  0  0  0
  8  2  1  0  0  0  0
  9  7  1  0  0  0  0
 10  7  2  0  0  0  0
 11  4  1  0  0  0  0
 12  5  1  0  0  0  0
 13  3  1  0  0  0  0
  8  9  1  0  0  0  0
  6  4  2  0  0  0  0
M  END
> <#>
1364

> <PLATE>
LAT018

> <ROW>
D

> <COL>
2

> <COORD>
D02

> <LATID>
LAT018D02

> <Supplier>
Chembridge

> <Suplier_CAT#>
7806581

> <Name>
Novel

> <Concentration_(mM)>
2.5

> <IC50_(µM)>
89

> <Yeast_Active?>
+

> <Pubchem_CID>
970831

$$$$
