
  -ISIS-  08130814242D

 19 20  0  0  0  0  0  0  0  0999 V2000
   -3.9208   -1.9000    0.0000 C   0  0  0  0  0  0  0  0  0  0  0  0
   -3.3125   -2.2500    0.0000 N   0  0  0  0  0  0  0  0  0  0  0  0
   -0.8125   -0.8000    0.0000 N   0  0  0  0  0  0  0  0  0  0  0  0
   -3.8625   -1.1500    0.0000 O   0  0  0  0  0  0  0  0  0  0  0  0
   -2.6958   -1.9000    0.0000 C   0  0  0  0  0  0  0  0  0  0  0  0
   -1.4458   -1.1667    0.0000 C   0  0  0  0  0  0  0  0  0  0  0  0
    1.0500    0.9958    0.0000 C   0  0  0  0  0  0  0  0  0  0  0  0
   -0.8208   -0.0542    0.0000 C   0  0  0  0  0  0  0  0  0  0  0  0
   -0.1958    0.2833    0.0000 C   0  0  0  0  0  0  0  0  0  0  0  0
    1.6542    1.3458    0.0000 Cl  0  0  0  0  0  0  0  0  0  0  0  0
   -2.6958   -1.1667    0.0000 C   0  0  0  0  0  0  0  0  0  0  0  0
   -2.0708   -2.2542    0.0000 C   0  0  0  0  0  0  0  0  0  0  0  0
   -2.0708   -0.8167    0.0000 C   0  0  0  0  0  0  0  0  0  0  0  0
   -1.4458   -1.9000    0.0000 C   0  0  0  0  0  0  0  0  0  0  0  0
    1.0500    0.2833    0.0000 C   0  0  0  0  0  0  0  0  0  0  0  0
    0.4167    1.3500    0.0000 C   0  0  0  0  0  0  0  0  0  0  0  0
    0.4167   -0.0667    0.0000 C   0  0  0  0  0  0  0  0  0  0  0  0
   -0.1958    0.9958    0.0000 C   0  0  0  0  0  0  0  0  0  0  0  0
   -4.5333   -2.2500    0.0000 C   0  0  0  0  0  0  0  0  0  0  0  0
  2  1  1  0  0  0  0
  3  6  1  0  0  0  0
  4  1  2  0  0  0  0
  5  2  1  0  0  0  0
  6 14  2  0  0  0  0
  7 16  2  0  0  0  0
  8  3  1  0  0  0  0
  9  8  1  0  0  0  0
 10  7  1  0  0  0  0
 11  5  1  0  0  0  0
 12  5  2  0  0  0  0
 13 11  2  0  0  0  0
 14 12  1  0  0  0  0
 15 17  2  0  0  0  0
 16 18  1  0  0  0  0
 17  9  1  0  0  0  0
 18  9  2  0  0  0  0
 19  1  1  0  0  0  0
 13  6  1  0  0  0  0
  7 15  1  0  0  0  0
M  END
> <#>
1818

> <PLATE>
LAT023

> <ROW>
B

> <COL>
9

> <COORD>
B09

> <LATID>
LAT023B09

> <Supplier>
Chembridge

> <Suplier_CAT#>
5646858

> <Name>
Novel

> <Sec_Name>
195_F04

> <Concentration_(mM)>
2.5

> <IC50_(µM)>
1.4

> <Yeast_Active?>
-

> <Pubchem_CID>
3425769

$$$$
