
  -ISIS-  08130814242D

  8  7  0  0  0  0  0  0  0  0999 V2000
    4.5500   -3.1708    0.0000 C   0  0  3  0  0  0  0  0  0  0  0  0
    4.9542   -3.8792    0.0000 C   0  0  0  0  0  0  0  0  0  0  0  0
    4.1417   -2.4542    0.0000 C   0  0  0  0  0  0  0  0  0  0  0  0
    3.7250   -3.1708    0.0000 C   0  0  0  0  0  0  0  0  0  0  0  0
    5.7750   -3.8875    0.0000 O   0  0  0  0  0  0  0  0  0  0  0  0
    5.1292   -2.5792    0.0000 N   0  0  0  0  0  0  0  0  0  0  0  0
    4.5417   -4.5875    0.0000 O   0  0  0  0  0  0  0  0  0  0  0  0
    7.6417   -3.5000    0.0000 Cl  0  0  0  0  0  0  0  0  0  0  0  0
  2  1  1  0  0  0  0
  3  1  1  0  0  0  0
  4  1  1  0  0  0  0
  5  2  2  0  0  0  0
  6  1  1  0  0  0  0
  7  2  1  0  0  0  0
  4  3  1  0  0  0  0
M  END
> <#>
193

> <PLATE>
LAT003

> <ROW>
A

> <COL>
6

> <COORD>
A06

> <LATID>
LAT003A06

> <Supplier>
Sigma

> <Suplier_CAT#>
A 0430

> <Name>
ACC Hydrochloride

> <Concentration_(mM)>
2.5

> <IC50_(µM)>
6.4

> <Yeast_Active?>
-

> <Pubchem_CID>
535

> <Description>
Plant Growth Regulator (ACC)

> <Comment>
In animals, is an NMDA glutamate receptor agonist acting at the glycine site

$$$$
