
  -ISIS-  08130814242D

 31 36  0  0  0  0  0  0  0  0999 V2000
   -0.5833    0.7500    0.0000 C   0  0  0  0  0  0  0  0  0  0  0  0
   -1.1458    0.4333    0.0000 C   0  0  0  0  0  0  0  0  0  0  0  0
   -0.0458   -0.2042    0.0000 N   0  0  0  0  0  0  0  0  0  0  0  0
   -0.0458    0.4500    0.0000 C   0  0  3  0  0  0  0  0  0  0  0  0
   -1.1458   -0.2042    0.0000 C   0  0  0  0  0  0  0  0  0  0  0  0
   -0.6000   -0.5042    0.0000 C   0  0  0  0  0  0  0  0  0  0  0  0
   -0.5833    1.3958    0.0000 C   0  0  0  0  0  0  0  0  0  0  0  0
   -1.6833   -0.5292    0.0000 C   0  0  0  0  0  0  0  0  0  0  0  0
    0.5167    0.7708    0.0000 C   0  0  0  0  0  0  0  0  0  0  0  0
   -0.5833   -1.1500    0.0000 C   0  0  0  0  0  0  0  0  0  0  0  0
    1.6000    1.4125    0.0000 C   0  0  0  0  0  0  0  0  0  0  0  0
   -0.0208    1.7125    0.0000 O   0  0  0  0  0  0  0  0  0  0  0  0
   -1.6833   -1.1500    0.0000 C   0  0  0  0  0  0  0  0  0  0  0  0
    1.0542    0.4500    0.0000 C   0  0  0  0  0  0  0  0  0  0  0  0
    0.5167    1.3958    0.0000 C   0  0  0  0  0  0  0  0  0  0  0  0
    1.6000    0.7500    0.0000 C   0  0  0  0  0  0  0  0  0  0  0  0
    1.0542    1.7125    0.0000 C   0  0  0  0  0  0  0  0  0  0  0  0
   -1.1458   -1.4667    0.0000 C   0  0  0  0  0  0  0  0  0  0  0  0
    2.1542    1.7333    0.0000 C   0  0  0  0  0  0  0  0  0  0  0  0
   -1.6833    0.7500    0.0000 C   0  0  0  0  0  0  0  0  0  0  0  0
   -1.1458    1.7125    0.0000 C   0  0  0  0  0  0  0  0  0  0  0  0
   -1.6833    1.3958    0.0000 C   0  0  0  0  0  0  0  0  0  0  0  0
   -2.2458   -0.2042    0.0000 C   0  0  0  0  0  0  0  0  0  0  0  0
    2.7000    1.4125    0.0000 C   0  0  0  0  0  0  0  0  0  0  0  0
    2.1292    2.3708    0.0000 C   0  0  0  0  0  0  0  0  0  0  0  0
   -2.2458   -1.4667    0.0000 C   0  0  0  0  0  0  0  0  0  0  0  0
   -2.7833   -0.5042    0.0000 C   0  0  0  0  0  0  0  0  0  0  0  0
    2.7000    2.6958    0.0000 C   0  0  0  0  0  0  0  0  0  0  0  0
    3.2375    1.7333    0.0000 C   0  0  0  0  0  0  0  0  0  0  0  0
   -2.7833   -1.1667    0.0000 C   0  0  0  0  0  0  0  0  0  0  0  0
    3.2375    2.3708    0.0000 C   0  0  0  0  0  0  0  0  0  0  0  0
  2  1  2  0  0  0  0
  3  4  1  0  0  0  0
  4  1  1  0  0  0  0
  5  2  1  0  0  0  0
  6  3  1  0  0  0  0
  7  1  1  0  0  0  0
  8  5  2  0  0  0  0
  9  4  1  0  0  0  0
 10  6  2  0  0  0  0
 11 17  2  0  0  0  0
 12  7  2  0  0  0  0
 13  8  1  0  0  0  0
 14  9  1  0  0  0  0
 15  9  2  0  0  0  0
 16 14  2  0  0  0  0
 17 15  1  0  0  0  0
 18 10  1  0  0  0  0
 19 11  1  0  0  0  0
 20  2  1  0  0  0  0
 21  7  1  0  0  0  0
 22 21  1  0  0  0  0
 23  8  1  0  0  0  0
 24 19  1  0  0  0  0
 25 19  2  0  0  0  0
 26 13  1  0  0  0  0
 27 23  2  0  0  0  0
 28 25  1  0  0  0  0
 29 24  2  0  0  0  0
 30 27  1  0  0  0  0
 31 28  2  0  0  0  0
 20 22  1  0  0  0  0
  5  6  1  0  0  0  0
 11 16  1  0  0  0  0
 13 18  2  0  0  0  0
 26 30  2  0  0  0  0
 29 31  1  0  0  0  0
M  END
> <#>
1961

> <PLATE>
LAT025

> <ROW>
A

> <COL>
7

> <COORD>
A07

> <LATID>
LAT025A07

> <Supplier>
Chembridge

> <Suplier_CAT#>
5355198

> <Concentration_(mM)>
2.5

> <IC50_(µM)>
inactive

> <Yeast_Active?>
-

> <Pubchem_CID>
1736049

$$$$
