
  -ISIS-  08130814242D

 27 30  0  0  0  0  0  0  0  0999 V2000
    3.5292    2.0583    0.0000 C   0  0  0  0  0  0  0  0  0  0  0  0
    4.8292    1.3083    0.0000 N   0  0  0  0  0  0  0  0  0  0  0  0
    4.8292    2.0583    0.0000 C   0  0  0  0  0  0  0  0  0  0  0  0
    4.1792    2.4333    0.0000 C   0  0  0  0  0  0  0  0  0  0  0  0
    2.8792    2.4333    0.0000 C   0  0  0  0  0  0  0  0  0  0  0  0
    3.5292    1.3083    0.0000 C   0  0  0  0  0  0  0  0  0  0  0  0
    4.1792    0.9333    0.0000 C   0  0  0  0  0  0  0  0  0  0  0  0
    2.2292    2.0583    0.0000 N   0  0  0  0  0  0  0  0  0  0  0  0
    5.4792    2.4333    0.0000 C   0  0  0  0  0  0  0  0  0  0  0  0
    0.2875    2.4333    0.0000 N   0  0  0  0  0  0  0  0  0  0  0  0
    2.8792    3.1833    0.0000 O   0  0  0  0  0  0  0  0  0  0  0  0
    6.1292    2.0583    0.0000 C   0  0  0  0  0  0  0  0  0  0  0  0
    1.5792    2.4333    0.0000 C   0  0  0  0  0  0  0  0  0  0  0  0
    0.9292    2.0583    0.0000 C   0  0  0  0  0  0  0  0  0  0  0  0
    6.7792    2.4333    0.0000 C   0  0  0  0  0  0  0  0  0  0  0  0
    7.4292    2.0583    0.0000 Cl  0  0  0  0  0  0  0  0  0  0  0  0
    2.8792    0.9333    0.0000 C   0  0  0  0  0  0  0  0  0  0  0  0
    5.4792    3.1833    0.0000 C   0  0  0  0  0  0  0  0  0  0  0  0
    4.1792    0.1833    0.0000 C   0  0  0  0  0  0  0  0  0  0  0  0
    6.1292    3.5583    0.0000 C   0  0  0  0  0  0  0  0  0  0  0  0
   -0.3625    2.0583    0.0000 C   0  0  0  0  0  0  0  0  0  0  0  0
    6.7792    3.1833    0.0000 C   0  0  0  0  0  0  0  0  0  0  0  0
    0.9292    1.3083    0.0000 C   0  0  0  0  0  0  0  0  0  0  0  0
    2.8792    0.1833    0.0000 C   0  0  0  0  0  0  0  0  0  0  0  0
    3.5292   -0.1917    0.0000 C   0  0  0  0  0  0  0  0  0  0  0  0
   -0.3625    1.3083    0.0000 C   0  0  0  0  0  0  0  0  0  0  0  0
    0.2875    0.9333    0.0000 C   0  0  0  0  0  0  0  0  0  0  0  0
  2  7  2  0  0  0  0
  3  4  2  0  0  0  0
  4  1  1  0  0  0  0
  5  1  1  0  0  0  0
  6  1  2  0  0  0  0
  7  6  1  0  0  0  0
  8  5  1  0  0  0  0
  9  3  1  0  0  0  0
 10 14  2  0  0  0  0
 11  5  2  0  0  0  0
 12  9  1  0  0  0  0
 13  8  1  0  0  0  0
 14 13  1  0  0  0  0
 15 12  2  0  0  0  0
 16 15  1  0  0  0  0
 17  6  1  0  0  0  0
 18  9  2  0  0  0  0
 19  7  1  0  0  0  0
 20 18  1  0  0  0  0
 21 10  1  0  0  0  0
 22 20  2  0  0  0  0
 23 14  1  0  0  0  0
 24 17  2  0  0  0  0
 25 24  1  0  0  0  0
 26 27  1  0  0  0  0
 27 23  2  0  0  0  0
  3  2  1  0  0  0  0
 19 25  2  0  0  0  0
 15 22  1  0  0  0  0
 26 21  2  0  0  0  0
M  END
> <#>
1547

> <PLATE>
LAT020

> <ROW>
C

> <COL>
5

> <COORD>
C05

> <LATID>
LAT020C05

> <Supplier>
Chembridge

> <Suplier_CAT#>
7922291

> <Name>
Novel

> <Concentration_(mM)>
2.5

> <IC50_(µM)>
64

> <Yeast_Active?>
-

> <Pubchem_CID>
2220818

$$$$
