
  -ISIS-  08130814242D

 22 23  0  0  0  0  0  0  0  0999 V2000
   -0.4625   -1.4667    0.0000 C   0  0  0  0  0  0  0  0  0  0  0  0
   -1.2708   -1.0042    0.0000 C   0  0  0  0  0  0  0  0  0  0  0  0
    0.3375   -1.0000    0.0000 C   0  0  0  0  0  0  0  0  0  0  0  0
   -2.0833   -1.4792    0.0000 C   0  0  0  0  0  0  0  0  0  0  0  0
    0.3375   -0.0667    0.0000 N   0  0  0  0  0  0  0  0  0  0  0  0
    1.1375   -1.4542    0.0000 C   0  0  3  0  0  0  0  0  0  0  0  0
   -2.8958   -1.0042    0.0000 C   0  0  0  0  0  0  0  0  0  0  0  0
   -1.2708   -0.0792    0.0000 O   0  0  0  0  0  0  0  0  0  0  0  0
    1.1375    0.4000    0.0000 C   0  0  0  0  0  0  0  0  0  0  0  0
    1.5667   -2.3000    0.0000 F   0  0  0  0  0  0  0  0  0  0  0  0
    1.9667   -1.0042    0.0000 F   0  0  0  0  0  0  0  0  0  0  0  0
   -2.8958   -0.0792    0.0000 O   0  0  0  0  0  0  0  0  0  0  0  0
    1.1375    1.3208    0.0000 C   0  0  0  0  0  0  0  0  0  0  0  0
   -2.0833   -2.4167    0.0000 C   0  0  0  0  0  0  0  0  0  0  0  0
   -3.7000   -1.4792    0.0000 C   0  0  0  0  0  0  0  0  0  0  0  0
    0.3375    1.7958    0.0000 C   0  0  0  0  0  0  0  0  0  0  0  0
    1.9375    1.7833    0.0000 C   0  0  0  0  0  0  0  0  0  0  0  0
   -2.8958   -2.8875    0.0000 C   0  0  0  0  0  0  0  0  0  0  0  0
   -3.7000   -2.4167    0.0000 C   0  0  0  0  0  0  0  0  0  0  0  0
    0.3375    2.7333    0.0000 C   0  0  0  0  0  0  0  0  0  0  0  0
    1.9500    2.7125    0.0000 C   0  0  0  0  0  0  0  0  0  0  0  0
    1.1375    3.1833    0.0000 C   0  0  0  0  0  0  0  0  0  0  0  0
  2  1  1  0  0  0  0
  3  1  2  0  0  0  0
  4  2  1  0  0  0  0
  5  3  1  0  0  0  0
  6  3  1  0  0  0  0
  7  4  1  0  0  0  0
  8  2  2  0  0  0  0
  9  5  1  0  0  0  0
 10  6  1  0  0  0  0
 11  6  1  0  0  0  0
 12  7  1  0  0  0  0
 13  9  1  0  0  0  0
 14  4  2  0  0  0  0
 15  7  2  0  0  0  0
 16 13  1  0  0  0  0
 17 13  2  0  0  0  0
 18 14  1  0  0  0  0
 19 18  2  0  0  0  0
 20 16  2  0  0  0  0
 21 17  1  0  0  0  0
 22 21  2  0  0  0  0
 15 19  1  0  0  0  0
 20 22  1  0  0  0  0
M  END
> <#>
1186

> <PLATE>
LAT015

> <ROW>
B

> <COL>
10

> <COORD>
B10

> <LATID>
LAT015B10

> <Supplier>
Chembridge

> <Suplier_CAT#>
5488368

> <Name>
Novel

> <Concentration_(mM)>
2.5

> <IC50_(µM)>
>100

> <Yeast_Active?>
-

> <Pubchem_CID>
870532

$$$$
