
  -ISIS-  08130814242D

 20 22  0  0  0  0  0  0  0  0999 V2000
   -0.7958   -0.1375    0.0000 N   0  0  3  0  0  0  0  0  0  0  0  0
   -0.1125    0.3625    0.0000 N   0  0  0  0  0  0  0  0  0  0  0  0
   -0.7958   -0.9792    0.0000 C   0  0  0  0  0  0  0  0  0  0  0  0
   -1.4708    0.3625    0.0000 C   0  0  0  0  0  0  0  0  0  0  0  0
   -1.2125    1.1625    0.0000 C   0  0  0  0  0  0  0  0  0  0  0  0
   -0.3500    1.1625    0.0000 C   0  0  0  0  0  0  0  0  0  0  0  0
   -1.6125   -1.2000    0.0000 C   0  0  0  0  0  0  0  0  0  0  0  0
   -1.8000   -2.0500    0.0000 C   0  0  0  0  0  0  0  0  0  0  0  0
   -2.6125   -2.3000    0.0000 C   0  0  0  0  0  0  0  0  0  0  0  0
    0.0292   -1.5167    0.0000 O   0  0  0  0  0  0  0  0  0  0  0  0
   -2.7958   -3.1000    0.0000 C   0  0  0  0  0  0  0  0  0  0  0  0
   -2.2708    0.1000    0.0000 C   0  0  0  0  0  0  0  0  0  0  0  0
   -1.1458   -2.6375    0.0000 C   0  0  0  0  0  0  0  0  0  0  0  0
   -1.3208   -3.4375    0.0000 C   0  0  0  0  0  0  0  0  0  0  0  0
    0.0500    1.9000    0.0000 C   0  0  0  0  0  0  0  0  0  0  0  0
   -3.2208   -1.7167    0.0000 C   0  0  0  0  0  0  0  0  0  0  0  0
   -2.1833   -3.6875    0.0000 C   0  0  0  0  0  0  0  0  0  0  0  0
   -3.6000   -3.3542    0.0000 C   0  0  0  0  0  0  0  0  0  0  0  0
   -4.0333   -1.9792    0.0000 C   0  0  0  0  0  0  0  0  0  0  0  0
   -4.2208   -2.7667    0.0000 C   0  0  0  0  0  0  0  0  0  0  0  0
  2  1  1  0  0  0  0
  3  1  1  0  0  0  0
  4  1  1  0  0  0  0
  5  4  2  0  0  0  0
  6  2  2  0  0  0  0
  7  3  1  0  0  0  0
  8  7  1  0  0  0  0
  9  8  1  0  0  0  0
 10  3  2  0  0  0  0
 11  9  1  0  0  0  0
 12  4  1  0  0  0  0
 13  8  2  0  0  0  0
 14 13  1  0  0  0  0
 15  6  1  0  0  0  0
 16  9  2  0  0  0  0
 17 14  2  0  0  0  0
 18 11  2  0  0  0  0
 19 16  1  0  0  0  0
 20 19  2  0  0  0  0
  6  5  1  0  0  0  0
 11 17  1  0  0  0  0
 18 20  1  0  0  0  0
M  END
> <#>
1830

> <PLATE>
LAT023

> <ROW>
F

> <COL>
10

> <COORD>
F10

> <LATID>
LAT023F10

> <Supplier>
Chembridge

> <Suplier_CAT#>
5674925

> <Name>
Novel

> <Sec_Name>
213_H03

> <Concentration_(mM)>
2.5

> <IC50_(µM)>
10

> <Yeast_Active?>
-

> <Pubchem_CID>
867868

$$$$
