
  -ISIS-  08130814242D

 26 28  0  0  0  0  0  0  0  0999 V2000
    4.8500    0.3958    0.0000 C   0  0  0  0  0  0  0  0  0  0  0  0
    7.4542    0.3958    0.0000 C   0  0  0  0  0  0  0  0  0  0  0  0
    5.5000    0.0208    0.0000 C   0  0  0  0  0  0  0  0  0  0  0  0
    6.8042    0.0208    0.0000 C   0  0  0  0  0  0  0  0  0  0  0  0
    4.8500    1.1458    0.0000 N   0  0  0  0  0  0  0  0  0  0  0  0
    8.1000    0.0208    0.0000 N   0  0  0  0  0  0  0  0  0  0  0  0
    6.1500    0.4000    0.0000 C   0  0  0  0  0  0  0  0  0  0  0  0
    9.4042   -0.7167    0.0000 N   0  0  0  0  0  0  0  0  0  0  0  0
    4.8500    2.6458    0.0000 N   0  0  0  0  0  0  0  0  0  0  0  0
    7.4542    1.1458    0.0000 O   0  0  0  0  0  0  0  0  0  0  0  0
    4.2000    0.0208    0.0000 O   0  0  0  0  0  0  0  0  0  0  0  0
    8.7542    0.3958    0.0000 C   0  0  0  0  0  0  0  0  0  0  0  0
    4.2000    1.5208    0.0000 C   0  0  0  0  0  0  0  0  0  0  0  0
    9.4042    0.0125    0.0000 C   0  0  0  0  0  0  0  0  0  0  0  0
    4.2000    2.2708    0.0000 C   0  0  0  0  0  0  0  0  0  0  0  0
    5.5042   -0.7167    0.0000 C   0  0  0  0  0  0  0  0  0  0  0  0
    6.8042   -0.7167    0.0000 C   0  0  0  0  0  0  0  0  0  0  0  0
    6.1500   -1.1000    0.0000 C   0  0  0  0  0  0  0  0  0  0  0  0
    4.8500    3.3958    0.0000 C   0  0  0  0  0  0  0  0  0  0  0  0
   10.0500   -1.1000    0.0000 C   0  0  0  0  0  0  0  0  0  0  0  0
   10.0542    0.3958    0.0000 C   0  0  0  0  0  0  0  0  0  0  0  0
    3.5500    2.6458    0.0000 C   0  0  0  0  0  0  0  0  0  0  0  0
    4.2000    3.7708    0.0000 C   0  0  0  0  0  0  0  0  0  0  0  0
   10.7000   -0.7292    0.0000 C   0  0  0  0  0  0  0  0  0  0  0  0
    3.5500    3.3958    0.0000 C   0  0  0  0  0  0  0  0  0  0  0  0
   10.7042    0.0125    0.0000 C   0  0  0  0  0  0  0  0  0  0  0  0
  2  4  1  0  0  0  0
  3  1  1  0  0  0  0
  4  7  2  0  0  0  0
  5  1  1  0  0  0  0
  6  2  1  0  0  0  0
  7  3  1  0  0  0  0
  8 14  2  0  0  0  0
  9 15  2  0  0  0  0
 10  2  2  0  0  0  0
 11  1  2  0  0  0  0
 12  6  1  0  0  0  0
 13  5  1  0  0  0  0
 14 12  1  0  0  0  0
 15 13  1  0  0  0  0
 16  3  2  0  0  0  0
 17 18  2  0  0  0  0
 18 16  1  0  0  0  0
 19  9  1  0  0  0  0
 20  8  1  0  0  0  0
 21 14  1  0  0  0  0
 22 15  1  0  0  0  0
 23 25  1  0  0  0  0
 24 26  1  0  0  0  0
 25 22  2  0  0  0  0
 26 21  2  0  0  0  0
  4 17  1  0  0  0  0
 23 19  2  0  0  0  0
 20 24  2  0  0  0  0
M  END
> <#>
1402

> <PLATE>
LAT018

> <ROW>
B

> <COL>
7

> <COORD>
B07

> <LATID>
LAT018B07

> <Supplier>
Chembridge

> <Suplier_CAT#>
5352483

> <Name>
Novel

> <Concentration_(mM)>
2.5

> <IC50_(µM)>
>100

> <Yeast_Active?>
-

> <Pubchem_CID>
668914

$$$$
