
  -ISIS-  08130814242D

 26 30  0  0  0  0  0  0  0  0999 V2000
    0.1667   -0.5542    0.0000 C   0  0  0  0  0  0  0  0  0  0  0  0
    0.8042   -0.1542    0.0000 C   0  0  0  0  0  0  0  0  0  0  0  0
    0.1667   -1.3042    0.0000 C   0  0  0  0  0  0  0  0  0  0  0  0
    0.8042    0.5958    0.0000 N   0  0  0  0  0  0  0  0  0  0  0  0
    1.4500   -0.5292    0.0000 N   0  0  3  0  0  0  0  0  0  0  0  0
   -1.1333   -0.5542    0.0000 C   0  0  0  0  0  0  0  0  0  0  0  0
   -1.1333   -1.3042    0.0000 C   0  0  0  0  0  0  0  0  0  0  0  0
   -0.4833   -1.6792    0.0000 S   0  0  0  0  0  0  0  0  0  0  0  0
    2.1000    0.5958    0.0000 C   0  0  0  0  0  0  0  0  0  0  0  0
    2.1000   -0.1542    0.0000 N   0  0  0  0  0  0  0  0  0  0  0  0
    0.8167   -1.6792    0.0000 N   0  0  0  0  0  0  0  0  0  0  0  0
   -1.7833   -1.6792    0.0000 C   0  0  3  0  0  0  0  0  0  0  0  0
    1.4667   -1.3042    0.0000 C   0  0  0  0  0  0  0  0  0  0  0  0
   -2.4333   -1.3042    0.0000 N   0  0  0  0  0  0  0  0  0  0  0  0
    2.6292    1.1333    0.0000 C   0  0  0  0  0  0  0  0  0  0  0  0
   -2.4333   -0.5917    0.0000 C   0  0  3  0  0  0  0  0  0  0  0  0
   -1.7833   -0.1792    0.0000 C   0  0  0  0  0  0  0  0  0  0  0  0
    3.8875    1.4625    0.0000 N   0  0  0  0  0  0  0  0  0  0  0  0
    3.3542    0.9333    0.0000 C   0  0  0  0  0  0  0  0  0  0  0  0
   -1.3458   -2.2792    0.0000 C   0  0  0  0  0  0  0  0  0  0  0  0
   -2.2083   -2.3375    0.0000 C   0  0  0  0  0  0  0  0  0  0  0  0
    2.4375    1.8583    0.0000 C   0  0  0  0  0  0  0  0  0  0  0  0
   -3.0083    0.0708    0.0000 C   0  0  0  0  0  0  0  0  0  0  0  0
   -3.1583   -0.8042    0.0000 C   0  0  0  0  0  0  0  0  0  0  0  0
    3.6917    2.1875    0.0000 C   0  0  0  0  0  0  0  0  0  0  0  0
    2.9667    2.3833    0.0000 C   0  0  0  0  0  0  0  0  0  0  0  0
  2  1  1  0  0  0  0
  3  1  2  0  0  0  0
  4  2  2  0  0  0  0
  5  2  1  0  0  0  0
  6  1  1  0  0  0  0
  7  6  2  0  0  0  0
  8  3  1  0  0  0  0
  9  4  1  0  0  0  0
 10  5  1  0  0  0  0
 11  3  1  0  0  0  0
 12  7  1  0  0  0  0
 13 11  2  0  0  0  0
 14 16  1  0  0  0  0
 15  9  1  0  0  0  0
 16 17  1  0  0  0  0
 17  6  1  0  0  0  0
 18 19  2  0  0  0  0
 19 15  1  0  0  0  0
 20 12  1  0  0  0  0
 21 12  1  0  0  0  0
 22 15  2  0  0  0  0
 23 16  1  0  0  0  0
 24 16  1  0  0  0  0
 25 26  2  0  0  0  0
 26 22  1  0  0  0  0
  8  7  1  0  0  0  0
  5 13  1  0  0  0  0
  9 10  2  0  0  0  0
 12 14  1  0  0  0  0
 25 18  1  0  0  0  0
M  END
> <#>
1023

> <PLATE>
LAT013

> <ROW>
G

> <COL>
9

> <COORD>
G09

> <LATID>
LAT013G09

> <Supplier>
Chembridge

> <Suplier_CAT#>
5786589

> <Name>
Novel

> <Sec_Name>
248_F10

> <Concentration_(mM)>
2.5

> <IC50_(µM)>
29

> <Yeast_Active?>
-

> <Pubchem_CID>
1112016

$$$$
