
  -ISIS-  08130814242D

 19 20  0  0  0  0  0  0  0  0999 V2000
   -0.6208    0.5833    0.0000 S   0  0  3  0  0  0  0  0  0  0  0  0
    0.2000    0.5833    0.0000 C   0  0  0  0  0  0  0  0  0  0  0  0
   -1.4458    0.5833    0.0000 N   0  0  0  0  0  0  0  0  0  0  0  0
    0.6000   -0.1375    0.0000 C   0  0  0  0  0  0  0  0  0  0  0  0
   -0.6208    1.3833    0.0000 O   0  0  0  0  0  0  0  0  0  0  0  0
   -0.6208   -0.2375    0.0000 O   0  0  0  0  0  0  0  0  0  0  0  0
    0.6000    1.2833    0.0000 C   0  0  0  0  0  0  0  0  0  0  0  0
    1.4000   -0.1375    0.0000 C   0  0  0  0  0  0  0  0  0  0  0  0
   -3.8625   -0.8375    0.0000 N   0  0  0  0  0  0  0  0  0  0  0  0
   -2.6458   -0.1375    0.0000 C   0  0  0  0  0  0  0  0  0  0  0  0
   -1.8458   -0.1375    0.0000 C   0  0  0  0  0  0  0  0  0  0  0  0
    1.8000    0.5833    0.0000 C   0  0  0  0  0  0  0  0  0  0  0  0
    1.4000    1.2833    0.0000 C   0  0  0  0  0  0  0  0  0  0  0  0
    2.6167    0.5833    0.0000 I   0  0  0  0  0  0  0  0  0  0  0  0
   -3.0625   -0.8375    0.0000 C   0  0  0  0  0  0  0  0  0  0  0  0
    0.1792   -0.8542    0.0000 C   0  0  0  0  0  0  0  0  0  0  0  0
   -4.2708   -0.1375    0.0000 C   0  0  0  0  0  0  0  0  0  0  0  0
   -3.0458    0.5833    0.0000 C   0  0  0  0  0  0  0  0  0  0  0  0
   -3.8625    0.5833    0.0000 C   0  0  0  0  0  0  0  0  0  0  0  0
  2  1  1  0  0  0  0
  3  1  1  0  0  0  0
  4  2  1  0  0  0  0
  5  1  2  0  0  0  0
  6  1  2  0  0  0  0
  7  2  2  0  0  0  0
  8  4  2  0  0  0  0
  9 15  1  0  0  0  0
 10 11  1  0  0  0  0
 11  3  1  0  0  0  0
 12 13  2  0  0  0  0
 13  7  1  0  0  0  0
 14 12  1  0  0  0  0
 15 10  2  0  0  0  0
 16  4  1  0  0  0  0
 17 19  1  0  0  0  0
 18 10  1  0  0  0  0
 19 18  2  0  0  0  0
  8 12  1  0  0  0  0
  9 17  2  0  0  0  0
M  END
> <#>
1921

> <PLATE>
LAT025

> <ROW>
A

> <COL>
2

> <COORD>
A02

> <LATID>
LAT025A02

> <Supplier>
Chembridge

> <Suplier_CAT#>
5566861

> <Name>
S001 B09

> <Sec_Name>
173_D06

> <Concentration_(mM)>
2.5

> <IC50_(µM)>
8

> <Yeast_Active?>
-

> <Pubchem_CID>
3710878

$$$$
