
  -ISIS-  08130814242D

  4  0  0  0  0  0  0  0  0  0999 V2000
    7.7142   -1.2623    0.0000 Gd  0  1  0  0  0  0  0  0  0  0  0  0
    7.7142   -0.3700    0.0000 Cl  0  5  0  0  0  0  0  0  0  0  0  0
    6.9415   -1.7085    0.0000 Cl  0  5  0  0  0  0  0  0  0  0  0  0
    8.4870   -1.7085    0.0000 Cl  0  5  0  0  0  0  0  0  0  0  0  0
M  CHG  4   1   3   2  -1   3  -1   4  -1
M  END
> <#>
534

> <PLATE>
LAT007

> <ROW>
F

> <COL>
8

> <COORD>
F08

> <LATID>
LAT007F08

> <Supplier>
Aldrich

> <Suplier_CAT#>
20,328-9

> <Name>
Gadolinium (III) Chloride Hexahydrate

> <Concentration_(mM)>
2.5

> <IC50_(µM)>
>100

> <Yeast_Active?>
-

> <Pubchem_CID>
197915

$$$$
