
  -ISIS-  08130814242D

 27 30  0  0  0  0  0  0  0  0999 V2000
   -0.3500    0.1500    0.0000 C   0  0  0  0  0  0  0  0  0  0  0  0
   -0.9958    0.5333    0.0000 C   0  0  0  0  0  0  0  0  0  0  0  0
    0.3042    0.5333    0.0000 C   0  0  0  0  0  0  0  0  0  0  0  0
    0.9500    0.1500    0.0000 C   0  0  0  0  0  0  0  0  0  0  0  0
   -0.9958    1.2708    0.0000 N   0  0  0  0  0  0  0  0  0  0  0  0
    0.9500   -0.6042    0.0000 C   0  0  0  0  0  0  0  0  0  0  0  0
   -1.6333    0.1500    0.0000 C   0  0  0  0  0  0  0  0  0  0  0  0
    0.3042    1.2708    0.0000 O   0  0  0  0  0  0  0  0  0  0  0  0
    1.5875   -0.9667    0.0000 C   0  0  0  0  0  0  0  0  0  0  0  0
   -1.6333    1.6458    0.0000 C   0  0  0  0  0  0  0  0  0  0  0  0
    1.5875    0.5333    0.0000 C   0  0  0  0  0  0  0  0  0  0  0  0
    0.3000   -0.9792    0.0000 C   0  0  0  0  0  0  0  0  0  0  0  0
    2.2292    0.1500    0.0000 C   0  0  0  0  0  0  0  0  0  0  0  0
    2.2292   -0.6042    0.0000 C   0  0  0  0  0  0  0  0  0  0  0  0
   -1.6333   -0.6042    0.0000 C   0  0  0  0  0  0  0  0  0  0  0  0
   -2.2708    0.5333    0.0000 C   0  0  0  0  0  0  0  0  0  0  0  0
    1.6000   -1.7167    0.0000 C   0  0  0  0  0  0  0  0  0  0  0  0
   -1.6500    2.4000    0.0000 C   0  0  0  0  0  0  0  0  0  0  0  0
   -2.2500    1.2625    0.0000 C   0  0  0  0  0  0  0  0  0  0  0  0
    0.3042   -1.7292    0.0000 C   0  0  0  0  0  0  0  0  0  0  0  0
   -2.9125    0.1500    0.0000 C   0  0  0  0  0  0  0  0  0  0  0  0
   -2.2708   -0.9667    0.0000 C   0  0  0  0  0  0  0  0  0  0  0  0
    0.9542   -2.1000    0.0000 C   0  0  0  0  0  0  0  0  0  0  0  0
   -2.9333    1.6208    0.0000 C   0  0  0  0  0  0  0  0  0  0  0  0
   -2.3125    2.7500    0.0000 C   0  0  0  0  0  0  0  0  0  0  0  0
   -2.9125   -0.6042    0.0000 C   0  0  0  0  0  0  0  0  0  0  0  0
   -2.9500    2.3625    0.0000 C   0  0  0  0  0  0  0  0  0  0  0  0
  2  1  2  0  0  0  0
  3  1  1  0  0  0  0
  4  3  1  0  0  0  0
  5  2  1  0  0  0  0
  6  4  1  0  0  0  0
  7  2  1  0  0  0  0
  8  3  2  0  0  0  0
  9  6  2  0  0  0  0
 10  5  1  0  0  0  0
 11  4  2  0  0  0  0
 12  6  1  0  0  0  0
 13 11  1  0  0  0  0
 14 13  2  0  0  0  0
 15  7  2  0  0  0  0
 16  7  1  0  0  0  0
 17  9  1  0  0  0  0
 18 10  2  0  0  0  0
 19 10  1  0  0  0  0
 20 12  2  0  0  0  0
 21 16  2  0  0  0  0
 22 15  1  0  0  0  0
 23 20  1  0  0  0  0
 24 19  2  0  0  0  0
 25 18  1  0  0  0  0
 26 21  1  0  0  0  0
 27 24  1  0  0  0  0
  9 14  1  0  0  0  0
 22 26  2  0  0  0  0
 23 17  2  0  0  0  0
 27 25  2  0  0  0  0
M  END
> <#>
1706

> <PLATE>
LAT022

> <ROW>
B

> <COL>
5

> <COORD>
B05

> <LATID>
LAT022B05

> <Supplier>
Chembridge

> <Suplier_CAT#>
5213819

> <Name>
Novel

> <Concentration_(mM)>
2.5

> <IC50_(µM)>
>100

> <Yeast_Active?>
-

> <Pubchem_CID>
2833918

$$$$
