
  -ISIS-  08130814242D

 17 18  0  0  0  0  0  0  0  0999 V2000
    3.7042   -0.4292    0.0000 N   0  0  3  0  0  0  0  0  0  0  0  0
    3.7042   -1.2542    0.0000 C   0  0  3  0  0  0  0  0  0  0  0  0
    2.9917   -0.0167    0.0000 C   0  0  0  0  0  0  0  0  0  0  0  0
    2.9917    0.8208    0.0000 N   0  0  0  0  0  0  0  0  0  0  0  0
    4.3750   -1.7292    0.0000 C   0  0  2  0  0  0  0  0  0  0  0  0
    3.0417   -1.7458    0.0000 O   0  0  0  0  0  0  0  0  0  0  0  0
    4.4292   -0.0167    0.0000 C   0  0  0  0  0  0  0  0  0  0  0  0
    4.1292   -2.5083    0.0000 C   0  0  1  0  0  0  0  0  0  0  0  0
    3.3125   -2.5250    0.0000 C   0  0  1  0  0  0  0  0  0  0  0  0
    4.4292    0.8208    0.0000 C   0  0  0  0  0  0  0  0  0  0  0  0
    3.7042    1.2333    0.0000 C   0  0  0  0  0  0  0  0  0  0  0  0
    2.2792   -0.4292    0.0000 O   0  0  0  0  0  0  0  0  0  0  0  0
    5.1625   -1.4583    0.0000 O   0  0  0  0  0  0  0  0  0  0  0  0
    3.7042    2.0583    0.0000 N   0  0  0  0  0  0  0  0  0  0  0  0
    4.6292   -3.1833    0.0000 O   0  0  0  0  0  0  0  0  0  0  0  0
    2.8417   -3.2125    0.0000 C   0  0  0  0  0  0  0  0  0  0  0  0
    2.0208   -3.1625    0.0000 O   0  0  0  0  0  0  0  0  0  0  0  0
  2  1  1  0  0  0  0
  3  1  1  0  0  0  0
  4  3  1  0  0  0  0
  5  2  1  0  0  0  0
  6  2  1  0  0  0  0
  7  1  1  0  0  0  0
  8  5  1  0  0  0  0
  9  6  1  0  0  0  0
 10  7  2  0  0  0  0
 11 10  1  0  0  0  0
 12  3  2  0  0  0  0
  5 13  1  1  0  0  0
 14 11  1  0  0  0  0
  8 15  1  6  0  0  0
  9 16  1  1  0  0  0
 17 16  1  0  0  0  0
  9  8  1  0  0  0  0
  4 11  2  0  0  0  0
M  END
> <#>
48

> <PLATE>
LAT001

> <ROW>
H

> <COL>
7

> <COORD>
H07

> <LATID>
LAT001H07

> <Supplier>
Microsource

> <Suplier_CAT#>
01500217

> <Name>
Cytarabine

> <Concentration_(mM)>
2.5

> <IC50_(µM)>
21

> <Yeast_Active?>
-

> <Pubchem_CID>
596

> <Description>
Antineoplastic, Antiviral, Antimetabolite

$$$$
