
  -ISIS-  08130814242D

 24 26  0  0  0  0  0  0  0  0999 V2000
    1.1167   -1.0375    0.0000 N   0  0  3  0  0  0  0  0  0  0  0  0
    1.0792   -1.8000    0.0000 C   0  0  0  0  0  0  0  0  0  0  0  0
    2.2875   -1.5292    0.0000 C   0  0  0  0  0  0  0  0  0  0  0  0
    1.8875   -0.8542    0.0000 C   0  0  0  0  0  0  0  0  0  0  0  0
    1.7667   -2.1042    0.0000 S   0  0  0  0  0  0  0  0  0  0  0  0
    3.0500   -1.5292    0.0000 C   0  0  0  0  0  0  0  0  0  0  0  0
    0.5167   -0.5292    0.0000 C   0  0  0  0  0  0  0  0  0  0  0  0
    3.4542   -0.8667    0.0000 C   0  0  0  0  0  0  0  0  0  0  0  0
    0.4000   -2.2167    0.0000 O   0  0  0  0  0  0  0  0  0  0  0  0
    2.1667   -0.1375    0.0000 O   0  0  0  0  0  0  0  0  0  0  0  0
    0.6292    0.2208    0.0000 N   0  0  0  0  0  0  0  0  0  0  0  0
    4.2792   -0.8500    0.0000 C   0  0  0  0  0  0  0  0  0  0  0  0
    0.1375    1.5000    0.0000 C   0  0  0  0  0  0  0  0  0  0  0  0
    0.0042    0.7208    0.0000 C   0  0  0  0  0  0  0  0  0  0  0  0
   -0.4958    1.9833    0.0000 C   0  0  0  0  0  0  0  0  0  0  0  0
    4.7167   -1.5167    0.0000 F   0  0  0  0  0  0  0  0  0  0  0  0
   -0.4125    2.7500    0.0000 Br  0  0  0  0  0  0  0  0  0  0  0  0
   -1.3000    0.9208    0.0000 C   0  0  0  0  0  0  0  0  0  0  0  0
    3.0667   -0.1875    0.0000 C   0  0  0  0  0  0  0  0  0  0  0  0
    4.6375   -0.1875    0.0000 C   0  0  0  0  0  0  0  0  0  0  0  0
   -0.7000    0.4458    0.0000 C   0  0  0  0  0  0  0  0  0  0  0  0
   -1.2125    1.6833    0.0000 C   0  0  0  0  0  0  0  0  0  0  0  0
    3.4542    0.4958    0.0000 C   0  0  0  0  0  0  0  0  0  0  0  0
    4.2375    0.4833    0.0000 C   0  0  0  0  0  0  0  0  0  0  0  0
  2  1  1  0  0  0  0
  3  4  1  0  0  0  0
  4  1  1  0  0  0  0
  5  2  1  0  0  0  0
  6  3  2  0  0  0  0
  7  1  1  0  0  0  0
  8  6  1  0  0  0  0
  9  2  2  0  0  0  0
 10  4  2  0  0  0  0
 11  7  1  0  0  0  0
 12  8  2  0  0  0  0
 13 14  1  0  0  0  0
 14 11  1  0  0  0  0
 15 13  2  0  0  0  0
 16 12  1  0  0  0  0
 17 15  1  0  0  0  0
 18 21  1  0  0  0  0
 19  8  1  0  0  0  0
 20 12  1  0  0  0  0
 21 14  2  0  0  0  0
 22 18  2  0  0  0  0
 23 19  2  0  0  0  0
 24 23  1  0  0  0  0
  3  5  1  0  0  0  0
 22 15  1  0  0  0  0
 24 20  2  0  0  0  0
M  END
> <#>
746

> <PLATE>
LAT010

> <ROW>
B

> <COL>
5

> <COORD>
B05

> <LATID>
LAT010B05

> <Supplier>
Chembridge

> <Suplier_CAT#>
5585729

> <Name>
Novel

> <Sec_Name>
182_C08

> <Concentration_(mM)>
2.5

> <IC50_(µM)>
28

> <Yeast_Active?>
-

> <Pubchem_CID>
1350812

$$$$
