
  -ISIS-  08130814242D

 26 28  0  0  0  0  0  0  0  0999 V2000
   -3.6213   -0.2026    0.0000 C   0  0  0  0  0  0  0  0  0  0  0  0
   -2.8497   -0.6508    0.0000 C   0  0  0  0  0  0  0  0  0  0  0  0
   -2.0757   -0.2066    0.0000 C   0  0  0  0  0  0  0  0  0  0  0  0
   -1.3041   -0.6548    0.0000 C   0  0  0  0  0  0  0  0  0  0  0  0
   -0.5302   -0.2107    0.0000 C   0  0  0  0  0  0  0  0  0  0  0  0
    0.2414   -0.6589    0.0000 C   0  0  0  0  0  0  0  0  0  0  0  0
   -4.3952   -0.6467    0.0000 O   0  0  0  0  0  0  0  0  0  0  0  0
   -3.6189    0.6898    0.0000 O   0  0  0  0  0  0  0  0  0  0  0  0
    1.0154   -0.2148    0.0000 N   0  0  0  0  0  0  0  0  0  0  0  0
    1.0177    0.6775    0.0000 C   0  0  0  0  0  0  0  0  0  0  0  0
    0.2706    1.1655    0.0000 O   0  0  0  0  0  0  0  0  0  0  0  0
    1.8138    1.0805    0.0000 O   0  0  0  0  0  0  0  0  0  0  0  0
    2.5609    0.5926    0.0000 C   0  0  0  0  0  0  0  0  0  0  0  0
    3.3570    0.9956    0.0000 C   0  0  3  0  0  0  0  0  0  0  0  0
    3.4990    1.8765    0.0000 C   0  0  0  0  0  0  0  0  0  0  0  0
    2.9392    2.5715    0.0000 C   0  0  0  0  0  0  0  0  0  0  0  0
    3.2612    3.4037    0.0000 C   0  0  0  0  0  0  0  0  0  0  0  0
    4.1429    3.5409    0.0000 C   0  0  0  0  0  0  0  0  0  0  0  0
    4.7026    2.8460    0.0000 C   0  0  0  0  0  0  0  0  0  0  0  0
    4.3807    2.0138    0.0000 C   0  0  0  0  0  0  0  0  0  0  0  0
    4.7837    1.2177    0.0000 C   0  0  0  0  0  0  0  0  0  0  0  0
    5.6450    0.9844    0.0000 C   0  0  0  0  0  0  0  0  0  0  0  0
    5.8736    0.1219    0.0000 C   0  0  0  0  0  0  0  0  0  0  0  0
    5.2410   -0.5074    0.0000 C   0  0  0  0  0  0  0  0  0  0  0  0
    4.3797   -0.2742    0.0000 C   0  0  0  0  0  0  0  0  0  0  0  0
    4.1510    0.5884    0.0000 C   0  0  0  0  0  0  0  0  0  0  0  0
  1  2  1  0  0  0  0
  2  3  1  0  0  0  0
  3  4  1  0  0  0  0
  4  5  1  0  0  0  0
  5  6  1  0  0  0  0
  1  7  2  0  0  0  0
  1  8  1  0  0  0  0
  6  9  1  0  0  0  0
 10 11  2  0  0  0  0
 10 12  1  0  0  0  0
 12 13  1  0  0  0  0
 13 14  1  0  0  0  0
 14 15  1  0  0  0  0
 15 16  2  0  0  0  0
 16 17  1  0  0  0  0
 17 18  2  0  0  0  0
 18 19  1  0  0  0  0
 19 20  2  0  0  0  0
 20 21  1  0  0  0  0
 21 22  2  0  0  0  0
 22 23  1  0  0  0  0
 23 24  2  0  0  0  0
 24 25  1  0  0  0  0
 25 26  2  0  0  0  0
 14 26  1  0  0  0  0
 21 26  1  0  0  0  0
 15 20  1  0  0  0  0
  9 10  1  0  0  0  0
M  END
> <#>
484

> <PLATE>
LAT007

> <ROW>
D

> <COL>
2

> <COORD>
D02

> <LATID>
LAT007D02

> <Supplier>
Peptides International

> <Suplier_CAT#>
FLX-1775-PI

> <Name>
Fmoc-Epsilon-Aminocaproic Acid

> <Concentration_(mM)>
2.5

> <IC50_(µM)>
>100

> <Yeast_Active?>
-

> <Pubchem_CID>
2756087

$$$$
