
  -ISIS-  08130814242D

 22 24  0  0  0  0  0  0  0  0999 V2000
   -2.6333    1.8208    0.0000 C   0  0  0  0  0  0  0  0  0  0  0  0
   -3.2958    0.6333    0.0000 C   0  0  0  0  0  0  0  0  0  0  0  0
   -2.6333    1.0333    0.0000 C   0  0  0  0  0  0  0  0  0  0  0  0
   -1.9708    2.2125    0.0000 N   0  0  0  0  0  0  0  0  0  0  0  0
   -3.3208    2.2125    0.0000 C   0  0  0  0  0  0  0  0  0  0  0  0
    0.0875    1.8125    0.0000 N   0  0  0  0  0  0  0  0  0  0  0  0
   -4.0000    1.0333    0.0000 C   0  0  0  0  0  0  0  0  0  0  0  0
   -3.2958   -0.1667    0.0000 C   0  0  0  0  0  0  0  0  0  0  0  0
   -4.0000    1.8208    0.0000 C   0  0  0  0  0  0  0  0  0  0  0  0
   -1.2833    1.8208    0.0000 C   0  0  0  0  0  0  0  0  0  0  0  0
   -0.5958    2.2125    0.0000 C   0  0  0  0  0  0  0  0  0  0  0  0
   -3.3333    2.9958    0.0000 O   0  0  0  0  0  0  0  0  0  0  0  0
    0.7667    2.2125    0.0000 C   0  0  0  0  0  0  0  0  0  0  0  0
   -3.9583   -0.5292    0.0000 C   0  0  0  0  0  0  0  0  0  0  0  0
   -2.6208   -0.5500    0.0000 C   0  0  0  0  0  0  0  0  0  0  0  0
   -0.5958    2.9958    0.0000 C   0  0  0  0  0  0  0  0  0  0  0  0
   -2.6708    3.3833    0.0000 C   0  0  0  0  0  0  0  0  0  0  0  0
    0.7667    3.0000    0.0000 C   0  0  0  0  0  0  0  0  0  0  0  0
   -3.9583   -1.3167    0.0000 C   0  0  0  0  0  0  0  0  0  0  0  0
   -2.6208   -1.3167    0.0000 C   0  0  0  0  0  0  0  0  0  0  0  0
    0.0875    3.3958    0.0000 C   0  0  0  0  0  0  0  0  0  0  0  0
   -3.2958   -1.7042    0.0000 C   0  0  0  0  0  0  0  0  0  0  0  0
  2  3  1  0  0  0  0
  3  1  2  0  0  0  0
  4  1  1  0  0  0  0
  5  1  1  0  0  0  0
  6 11  1  0  0  0  0
  7  9  1  0  0  0  0
  8  2  1  0  0  0  0
  9  5  2  0  0  0  0
 10  4  1  0  0  0  0
 11 10  1  0  0  0  0
 12  5  1  0  0  0  0
 13  6  2  0  0  0  0
 14  8  2  0  0  0  0
 15  8  1  0  0  0  0
 16 11  2  0  0  0  0
 17 12  1  0  0  0  0
 18 21  2  0  0  0  0
 19 14  1  0  0  0  0
 20 15  2  0  0  0  0
 21 16  1  0  0  0  0
 22 20  1  0  0  0  0
  7  2  2  0  0  0  0
 13 18  1  0  0  0  0
 22 19  2  0  0  0  0
M  END
> <#>
577

> <PLATE>
LAT008

> <ROW>
A

> <COL>
4

> <COORD>
A04

> <LATID>
LAT008A04

> <Supplier>
Chembridge

> <Suplier_CAT#>
5460136

> <Name>
Novel

> <Sec_Name>
128_F04

> <Concentration_(mM)>
2.5

> <IC50_(µM)>
73

> <Yeast_Active?>
-

> <Pubchem_CID>
784328

$$$$
