
  -ISIS-  08130814242D

 34 38  0  0  0  0  0  0  0  0999 V2000
    6.8042   -3.7375    0.0000 C   0  0  0  0  0  0  0  0  0  0  0  0
    6.0917   -4.1500    0.0000 C   0  0  3  0  0  0  0  0  0  0  0  0
    6.8042   -2.9125    0.0000 C   0  0  2  0  0  0  0  0  0  0  0  0
    4.6625   -4.1500    0.0000 C   0  0  3  0  0  0  0  0  0  0  0  0
    5.3792   -3.7375    0.0000 C   0  0  3  0  0  0  0  0  0  0  0  0
    4.6625   -4.9792    0.0000 C   0  0  3  0  0  0  0  0  0  0  0  0
    7.5167   -2.5000    0.0000 C   0  0  1  0  0  0  0  0  0  0  0  0
    6.0917   -4.9792    0.0000 C   0  0  1  0  0  0  0  0  0  0  0  0
    3.9500   -5.3917    0.0000 C   0  0  3  0  0  0  0  0  0  0  0  0
    7.5167   -4.1500    0.0000 C   0  0  0  0  0  0  0  0  0  0  0  0
    8.2375   -2.9125    0.0000 O   0  0  0  0  0  0  0  0  0  0  0  0
    5.3792   -5.3917    0.0000 C   0  0  0  0  0  0  0  0  0  0  0  0
    7.5167   -1.6750    0.0000 C   0  0  0  0  0  0  0  0  0  0  0  0
    8.2375   -3.7375    0.0000 C   0  0  0  0  0  0  0  0  0  0  0  0
    6.0917   -2.5000    0.0000 C   0  0  0  0  0  0  0  0  0  0  0  0
    5.3792   -2.9125    0.0000 C   0  0  0  0  0  0  0  0  0  0  0  0
    3.9500   -3.7375    0.0000 C   0  0  0  0  0  0  0  0  0  0  0  0
    6.8167   -5.4042    0.0000 O   0  0  0  0  0  0  0  0  0  0  0  0
    6.8125   -6.2292    0.0000 C   0  0  0  0  0  0  0  0  0  0  0  0
    3.2292   -4.9792    0.0000 C   0  0  2  0  0  0  0  0  0  0  0  0
    8.1875   -1.1875    0.0000 C   0  0  0  0  0  0  0  0  0  0  0  0
    6.8500   -1.1875    0.0000 C   0  0  0  0  0  0  0  0  0  0  0  0
    7.9292   -0.4042    0.0000 O   0  0  0  0  0  0  0  0  0  0  0  0
    8.9542   -4.1500    0.0000 O   0  0  0  0  0  0  0  0  0  0  0  0
    7.1042   -0.4042    0.0000 C   0  0  0  0  0  0  0  0  0  0  0  0
    3.2292   -4.1500    0.0000 C   0  0  0  0  0  0  0  0  0  0  0  0
    6.0917   -6.6375    0.0000 O   0  0  0  0  0  0  0  0  0  0  0  0
    6.1292   -3.3042    0.0000 C   0  0  0  0  0  0  0  0  0  0  0  0
    6.8042   -2.0792    0.0000 C   0  0  0  0  0  0  0  0  0  0  0  0
    4.6625   -3.3667    0.0000 C   0  0  0  0  0  0  0  0  0  0  0  0
    3.3625   -5.9750    0.0000 C   0  0  0  0  0  0  0  0  0  0  0  0
    4.5292   -5.9750    0.0000 C   0  0  0  0  0  0  0  0  0  0  0  0
    2.5042   -5.4000    0.0000 O   0  0  0  0  0  0  0  0  0  0  0  0
    7.5167   -6.6417    0.0000 C   0  0  0  0  0  0  0  0  0  0  0  0
  2  1  1  0  0  0  0
  3  1  1  0  0  0  0
  4  5  1  0  0  0  0
  5  2  1  0  0  0  0
  6 12  1  0  0  0  0
  7  3  1  0  0  0  0
  8  2  1  0  0  0  0
  9  6  1  0  0  0  0
 10  1  2  0  0  0  0
 11 14  1  0  0  0  0
 12  8  1  0  0  0  0
  7 13  1  6  0  0  0
 14 10  1  0  0  0  0
 15  3  1  0  0  0  0
 16 15  1  0  0  0  0
 17  4  1  0  0  0  0
  8 18  1  6  0  0  0
 19 18  1  0  0  0  0
 20  9  1  0  0  0  0
 21 13  2  0  0  0  0
 22 13  1  0  0  0  0
 23 21  1  0  0  0  0
 24 14  2  0  0  0  0
 25 22  2  0  0  0  0
 26 17  1  0  0  0  0
 27 19  2  0  0  0  0
 28  2  1  0  0  0  0
  3 29  1  6  0  0  0
 30  4  1  0  0  0  0
 31  9  1  0  0  0  0
 32  9  1  0  0  0  0
 20 33  1  1  0  0  0
 34 19  1  0  0  0  0
 11  7  1  0  0  0  0
 16  5  1  0  0  0  0
  6  4  1  0  0  0  0
 23 25  1  0  0  0  0
 20 26  1  0  0  0  0
M  END
> <#>
10

> <PLATE>
LAT001

> <ROW>
B

> <COL>
3

> <COORD>
B03

> <LATID>
LAT001B03

> <Supplier>
Microsource

> <Suplier_CAT#>
00102035

> <Name>
3Beta-Hydroxydeoxodihydrodeoxygedunin

> <Concentration_(mM)>
2.5

> <IC50_(µM)>
9.6

> <Yeast_Active?>
-

> <Pubchem_CID>
3383047

> <Source>
Natural Product; ex Meliaceae spp

$$$$
