
  -ISIS-  08130814242D

 18 20  0  0  0  0  0  0  0  0999 V2000
   -1.8000    0.7333    0.0000 N   0  0  3  0  0  0  0  0  0  0  0  0
   -1.2458    1.0500    0.0000 C   0  0  0  0  0  0  0  0  0  0  0  0
   -1.2458    1.6958    0.0000 C   0  0  0  0  0  0  0  0  0  0  0  0
   -2.3625    1.0500    0.0000 C   0  0  0  0  0  0  0  0  0  0  0  0
   -1.8000    2.0208    0.0000 C   0  0  0  0  0  0  0  0  0  0  0  0
   -2.3625    1.6958    0.0000 C   0  0  0  0  0  0  0  0  0  0  0  0
   -0.6833    0.7333    0.0000 C   0  0  0  0  0  0  0  0  0  0  0  0
   -1.8000    2.6708    0.0000 O   0  0  0  0  0  0  0  0  0  0  0  0
   -1.8000    0.0708    0.0000 C   0  0  0  0  0  0  0  0  0  0  0  0
   -2.9208    2.0208    0.0000 C   0  0  0  0  0  0  0  0  0  0  0  0
   -2.9208    0.7333    0.0000 C   0  0  0  0  0  0  0  0  0  0  0  0
   -0.1208    1.0500    0.0000 C   0  0  0  0  0  0  0  0  0  0  0  0
   -0.6833    0.0958    0.0000 C   0  0  0  0  0  0  0  0  0  0  0  0
   -3.4833    1.6958    0.0000 C   0  0  0  0  0  0  0  0  0  0  0  0
   -3.4833    1.0500    0.0000 C   0  0  0  0  0  0  0  0  0  0  0  0
   -0.1208   -0.2500    0.0000 C   0  0  0  0  0  0  0  0  0  0  0  0
    0.4375    0.7333    0.0000 C   0  0  0  0  0  0  0  0  0  0  0  0
    0.4375    0.0958    0.0000 C   0  0  0  0  0  0  0  0  0  0  0  0
  2  1  1  0  0  0  0
  3  2  2  0  0  0  0
  4  1  1  0  0  0  0
  5  6  1  0  0  0  0
  6  4  2  0  0  0  0
  7  2  1  0  0  0  0
  8  5  2  0  0  0  0
  9  1  1  0  0  0  0
 10  6  1  0  0  0  0
 11  4  1  0  0  0  0
 12  7  2  0  0  0  0
 13  7  1  0  0  0  0
 14 15  1  0  0  0  0
 15 11  2  0  0  0  0
 16 13  2  0  0  0  0
 17 12  1  0  0  0  0
 18 16  1  0  0  0  0
  3  5  1  0  0  0  0
 10 14  2  0  0  0  0
 18 17  2  0  0  0  0
M  END
> <#>
551

> <PLATE>
LAT007

> <ROW>
G

> <COL>
10

> <COORD>
G10

> <LATID>
LAT007G10

> <Supplier>
Chembridge

> <Suplier_CAT#>
5471783

> <Name>
Novel

> <Sec_Name>
135_E07

> <Concentration_(mM)>
2.5

> <IC50_(µM)>
55

> <Yeast_Active?>
-

> <Pubchem_CID>
776143

$$$$
