
  -ISIS-  08130814242D

 14 14  0  0  0  0  0  0  0  0999 V2000
    2.3118   -3.7667    0.0000 C   0  0  0  0  0  0  0  0  0  0  0  0
    1.6868   -2.6842    0.0000 C   0  0  0  0  0  0  0  0  0  0  0  0
    0.4368   -2.6842    0.0000 N   0  0  0  0  0  0  0  0  0  0  0  0
   -0.1882   -1.6017    0.0000 C   0  0  0  0  0  0  0  0  0  0  0  0
   -1.4382   -1.6017    0.0000 N   0  0  0  0  0  0  0  0  0  0  0  0
   -2.0632   -0.5192    0.0000 C   0  0  0  0  0  0  0  0  0  0  0  0
   -1.4382    0.5634    0.0000 N   0  0  0  0  0  0  0  0  0  0  0  0
   -0.1882    0.5634    0.0000 C   0  0  0  0  0  0  0  0  0  0  0  0
    0.4368   -0.5192    0.0000 N   0  0  0  0  0  0  0  0  0  0  0  0
    0.4368    1.6459    0.0000 Cl  0  0  0  0  0  0  0  0  0  0  0  0
   -3.3132   -0.5192    0.0000 N   0  0  0  0  0  0  0  0  0  0  0  0
   -3.9382   -1.6017    0.0000 C   0  0  3  0  0  0  0  0  0  0  0  0
   -3.3132   -2.6842    0.0000 C   0  0  0  0  0  0  0  0  0  0  0  0
   -5.1882   -1.6017    0.0000 C   0  0  0  0  0  0  0  0  0  0  0  0
  1  2  1  0  0  0  0
  2  3  1  0  0  0  0
  3  4  1  0  0  0  0
  4  5  2  0  0  0  0
  5  6  1  0  0  0  0
  6  7  2  0  0  0  0
  7  8  1  0  0  0  0
  8  9  2  0  0  0  0
  4  9  1  0  0  0  0
  8 10  1  0  0  0  0
  6 11  1  0  0  0  0
 11 12  1  0  0  0  0
 12 13  1  0  0  0  0
 12 14  1  0  0  0  0
M  END
> <#>
335

> <PLATE>
LAT005

> <ROW>
G

> <COL>
3

> <COORD>
G03

> <LATID>
LAT005G03

> <Supplier>
Suppelco

> <Suplier_CAT#>
LB18382

> <Name>
Atrazine

> <Concentration_(mM)>
2.5

> <IC50_(µM)>
>100

> <Yeast_Active?>
-

> <Pubchem_CID>
2256

> <Description>
Herbicide

> <Comment>
PS II target site

$$$$
