
  -ISIS-  08130814242D

 19 20  0  0  0  0  0  0  0  0999 V2000
    1.2292    0.3958    0.0000 S   0  0  3  0  0  0  0  0  0  0  0  0
    1.8292    0.0625    0.0000 N   0  0  0  0  0  0  0  0  0  0  0  0
    0.6292    0.7208    0.0000 C   0  0  0  0  0  0  0  0  0  0  0  0
    2.4292    0.3958    0.0000 N   0  0  0  0  0  0  0  0  0  0  0  0
    1.5667    0.9958    0.0000 O   0  0  0  0  0  0  0  0  0  0  0  0
    0.8875   -0.2042    0.0000 O   0  0  0  0  0  0  0  0  0  0  0  0
    4.1792    1.4500    0.0000 N   0  0  0  0  0  0  0  0  0  0  0  0
    3.0292    0.0625    0.0000 C   0  0  0  0  0  0  0  0  0  0  0  0
    0.6292    1.4125    0.0000 C   0  0  0  0  0  0  0  0  0  0  0  0
    0.0500    0.3958    0.0000 C   0  0  0  0  0  0  0  0  0  0  0  0
    3.6042    0.4125    0.0000 C   0  0  0  0  0  0  0  0  0  0  0  0
   -0.5708    0.7208    0.0000 C   0  0  0  0  0  0  0  0  0  0  0  0
    0.0292    1.7458    0.0000 C   0  0  0  0  0  0  0  0  0  0  0  0
   -0.5708    1.4125    0.0000 C   0  0  0  0  0  0  0  0  0  0  0  0
    3.6000    1.0958    0.0000 C   0  0  0  0  0  0  0  0  0  0  0  0
    4.7875    1.1208    0.0000 C   0  0  0  0  0  0  0  0  0  0  0  0
    4.2042    0.0833    0.0000 C   0  0  0  0  0  0  0  0  0  0  0  0
   -1.2208    1.8000    0.0000 C   0  0  0  0  0  0  0  0  0  0  0  0
    4.7875    0.4333    0.0000 C   0  0  0  0  0  0  0  0  0  0  0  0
  2  1  1  0  0  0  0
  3  1  1  0  0  0  0
  4  2  1  0  0  0  0
  5  1  2  0  0  0  0
  6  1  2  0  0  0  0
  7 15  2  0  0  0  0
  8  4  2  0  0  0  0
  9  3  1  0  0  0  0
 10  3  2  0  0  0  0
 11  8  1  0  0  0  0
 12 10  1  0  0  0  0
 13  9  2  0  0  0  0
 14 12  2  0  0  0  0
 15 11  1  0  0  0  0
 16 19  2  0  0  0  0
 17 11  2  0  0  0  0
 18 14  1  0  0  0  0
 19 17  1  0  0  0  0
 14 13  1  0  0  0  0
 16  7  1  0  0  0  0
M  END
> <#>
1667

> <PLATE>
LAT021

> <ROW>
C

> <COL>
10

> <COORD>
C10

> <LATID>
LAT021C10

> <Supplier>
Chembridge

> <Suplier_CAT#>
5526875

> <Name>
Novel

> <Concentration_(mM)>
2.5

> <IC50_(µM)>
inactive

> <Yeast_Active?>
-

> <Pubchem_CID>
319544

$$$$
