
  -ISIS-  08130814242D

 20 22  0  0  0  0  0  0  0  0999 V2000
   -0.9500   -1.7000    0.0000 C   0  0  0  0  0  0  0  0  0  0  0  0
   -0.9958   -0.9000    0.0000 C   0  0  0  0  0  0  0  0  0  0  0  0
   -0.6833   -1.3000    0.0000 C   0  0  3  0  0  0  0  0  0  0  0  0
   -1.4458   -1.0667    0.0000 C   0  0  0  0  0  0  0  0  0  0  0  0
   -1.4458   -1.5500    0.0000 C   0  0  0  0  0  0  0  0  0  0  0  0
   -0.8833   -0.4167    0.0000 N   0  0  0  0  0  0  0  0  0  0  0  0
   -0.7708   -2.1500    0.0000 N   0  0  0  0  0  0  0  0  0  0  0  0
   -0.2000   -1.3000    0.0000 C   0  0  0  0  0  0  0  0  0  0  0  0
    0.0292   -1.7042    0.0000 C   0  0  0  0  0  0  0  0  0  0  0  0
    0.0292   -0.9000    0.0000 C   0  0  0  0  0  0  0  0  0  0  0  0
    0.7500   -1.3000    0.0000 C   0  0  0  0  0  0  0  0  0  0  0  0
   -0.4208   -0.3000    0.0000 O   0  0  0  0  0  0  0  0  0  0  0  0
   -0.2958   -2.2042    0.0000 O   0  0  0  0  0  0  0  0  0  0  0  0
    0.5042   -0.9000    0.0000 C   0  0  0  0  0  0  0  0  0  0  0  0
    0.5042   -1.7042    0.0000 C   0  0  0  0  0  0  0  0  0  0  0  0
    1.2292   -1.3000    0.0000 Cl  0  0  0  0  0  0  0  0  0  0  0  0
   -1.8625   -0.8167    0.0000 C   0  0  0  0  0  0  0  0  0  0  0  0
   -1.8625   -1.8042    0.0000 C   0  0  0  0  0  0  0  0  0  0  0  0
   -2.2958   -1.5500    0.0000 C   0  0  0  0  0  0  0  0  0  0  0  0
   -2.2958   -1.0667    0.0000 C   0  0  0  0  0  0  0  0  0  0  0  0
  2  3  1  0  0  0  0
  3  1  1  0  0  0  0
  4  5  2  0  0  0  0
  5  1  1  0  0  0  0
  6  2  2  0  0  0  0
  7  1  2  0  0  0  0
  8  3  1  0  0  0  0
  9  8  2  0  0  0  0
 10  8  1  0  0  0  0
 11 14  1  0  0  0  0
 12  6  1  0  0  0  0
 13  7  1  0  0  0  0
 14 10  2  0  0  0  0
 15  9  1  0  0  0  0
 16 11  1  0  0  0  0
 17  4  1  0  0  0  0
 18  5  1  0  0  0  0
 19 18  2  0  0  0  0
 20 19  1  0  0  0  0
  4  2  1  0  0  0  0
 17 20  2  0  0  0  0
 15 11  2  0  0  0  0
M  END
> <#>
907

> <PLATE>
LAT012

> <ROW>
C

> <COL>
5

> <COORD>
C05

> <LATID>
LAT012C05

> <Supplier>
Chembridge

> <Suplier_CAT#>
5680623

> <Name>
Novel

> <Sec_Name>
216_A10

> <Concentration_(mM)>
2.5

> <IC50_(µM)>
33

> <Yeast_Active?>
-

> <Pubchem_CID>
NULL

$$$$
