
  -ISIS-  08130814242D

 18 19  0  0  0  0  0  0  0  0999 V2000
    3.3417   -2.2667    0.0000 S   0  0  3  0  0  0  0  0  0  0  0  0
    5.2167   -2.6167    0.0000 C   0  0  0  0  0  0  0  0  0  0  0  0
    4.4292   -2.2667    0.0000 N   0  0  0  0  0  0  0  0  0  0  0  0
    5.4500   -3.3417    0.0000 C   0  0  0  0  0  0  0  0  0  0  0  0
    6.4375   -2.6167    0.0000 N   0  0  0  0  0  0  0  0  0  0  0  0
    5.8292   -2.1792    0.0000 O   0  0  0  0  0  0  0  0  0  0  0  0
    6.2042   -3.3417    0.0000 C   0  0  0  0  0  0  0  0  0  0  0  0
    2.5917   -2.2667    0.0000 C   0  0  0  0  0  0  0  0  0  0  0  0
    3.7167   -1.6167    0.0000 O   0  0  0  0  0  0  0  0  0  0  0  0
    3.7167   -2.9167    0.0000 O   0  0  0  0  0  0  0  0  0  0  0  0
    2.2125   -2.9167    0.0000 C   0  0  0  0  0  0  0  0  0  0  0  0
    2.2125   -1.6125    0.0000 C   0  0  0  0  0  0  0  0  0  0  0  0
    5.0125   -3.9417    0.0000 C   0  0  0  0  0  0  0  0  0  0  0  0
    1.0792   -2.2667    0.0000 C   0  0  0  0  0  0  0  0  0  0  0  0
    0.3292   -2.2667    0.0000 N   0  0  0  0  0  0  0  0  0  0  0  0
    1.4625   -2.9167    0.0000 C   0  0  0  0  0  0  0  0  0  0  0  0
    1.4542   -1.6125    0.0000 C   0  0  0  0  0  0  0  0  0  0  0  0
    6.6417   -3.9417    0.0000 C   0  0  0  0  0  0  0  0  0  0  0  0
  2  3  1  0  0  0  0
  3  1  1  0  0  0  0
  4  2  2  0  0  0  0
  5  6  1  0  0  0  0
  6  2  1  0  0  0  0
  7  4  1  0  0  0  0
  8  1  1  0  0  0  0
  9  1  2  0  0  0  0
 10  1  2  0  0  0  0
 11  8  1  0  0  0  0
 12  8  2  0  0  0  0
 13  4  1  0  0  0  0
 14 17  2  0  0  0  0
 15 14  1  0  0  0  0
 16 11  2  0  0  0  0
 17 12  1  0  0  0  0
 18  7  1  0  0  0  0
 14 16  1  0  0  0  0
  7  5  2  0  0  0  0
M  END
> <#>
107

> <PLATE>
LAT002

> <ROW>
C

> <COL>
5

> <COORD>
C05

> <LATID>
LAT002C05

> <Supplier>
Microsource

> <Suplier_CAT#>
01500555

> <Name>
Sulfisoxazole

> <Concentration_(mM)>
2.5

> <IC50_(µM)>
0.84

> <Yeast_Active?>
-

> <Pubchem_CID>
5344

> <Description>
Antibacterial

$$$$
