
  -ISIS-  08130814242D

 23 24  0  0  0  0  0  0  0  0999 V2000
    6.1042   -1.6792    0.0000 C   0  0  0  0  0  0  0  0  0  0  0  0
    6.1042   -2.4292    0.0000 C   0  0  0  0  0  0  0  0  0  0  0  0
    5.4542   -1.3042    0.0000 C   0  0  0  0  0  0  0  0  0  0  0  0
    2.8542   -1.3042    0.0000 C   0  0  0  0  0  0  0  0  0  0  0  0
    3.5042   -2.4292    0.0000 N   0  0  0  0  0  0  0  0  0  0  0  0
    1.5542   -1.3000    0.0000 N   0  0  0  0  0  0  0  0  0  0  0  0
    5.4542   -2.8042    0.0000 C   0  0  0  0  0  0  0  0  0  0  0  0
    4.8042   -1.6792    0.0000 C   0  0  0  0  0  0  0  0  0  0  0  0
    3.5042   -1.6792    0.0000 N   0  0  0  0  0  0  0  0  0  0  0  0
    4.8042   -2.4292    0.0000 C   0  0  0  0  0  0  0  0  0  0  0  0
    0.9042   -1.6792    0.0000 C   0  0  0  0  0  0  0  0  0  0  0  0
    2.8542   -0.5542    0.0000 O   0  0  0  0  0  0  0  0  0  0  0  0
    2.2042   -1.6792    0.0000 C   0  0  0  0  0  0  0  0  0  0  0  0
    4.1542   -2.8042    0.0000 C   0  0  0  0  0  0  0  0  0  0  0  0
    0.2542   -1.3000    0.0000 C   0  0  0  0  0  0  0  0  0  0  0  0
    6.7542   -2.8042    0.0000 Br  0  0  0  0  0  0  0  0  0  0  0  0
    5.4542   -0.5542    0.0000 Br  0  0  0  0  0  0  0  0  0  0  0  0
    6.7542   -1.3042    0.0000 O   0  0  0  0  0  0  0  0  0  0  0  0
    0.9042   -2.4292    0.0000 C   0  0  0  0  0  0  0  0  0  0  0  0
    0.2542   -0.5500    0.0000 C   0  0  0  0  0  0  0  0  0  0  0  0
   -0.3833   -1.6792    0.0000 C   0  0  0  0  0  0  0  0  0  0  0  0
   -0.3833   -2.4292    0.0000 C   0  0  0  0  0  0  0  0  0  0  0  0
    0.2542   -2.8042    0.0000 C   0  0  0  0  0  0  0  0  0  0  0  0
  2  1  1  0  0  0  0
  3  1  2  0  0  0  0
  4  9  1  0  0  0  0
  5 14  2  0  0  0  0
  6 13  1  0  0  0  0
  7  2  2  0  0  0  0
  8  3  1  0  0  0  0
  9  5  1  0  0  0  0
 10  8  2  0  0  0  0
 11  6  1  0  0  0  0
 12  4  2  0  0  0  0
 13  4  1  0  0  0  0
 14 10  1  0  0  0  0
 15 11  1  0  0  0  0
 16  2  1  0  0  0  0
 17  3  1  0  0  0  0
 18  1  1  0  0  0  0
 19 11  2  0  0  0  0
 20 15  1  0  0  0  0
 21 15  2  0  0  0  0
 22 23  2  0  0  0  0
 23 19  1  0  0  0  0
  7 10  1  0  0  0  0
 22 21  1  0  0  0  0
M  END
> <#>
661

> <PLATE>
LAT009

> <ROW>
E

> <COL>
4

> <COORD>
E04

> <LATID>
LAT009E04

> <Supplier>
Chembridge

> <Suplier_CAT#>
5528794

> <Name>
Novel

> <Sec_Name>
151_B10

> <Concentration_(mM)>
2.5

> <IC50_(µM)>
66

> <Yeast_Active?>
-

> <Pubchem_CID>
NULL

$$$$
