
  -ISIS-  08130814242D

 36 40  0  0  0  0  0  0  0  0999 V2000
    2.7542   -0.1792    0.0000 C   0  0  0  0  0  0  0  0  0  0  0  0
    4.0542   -0.1792    0.0000 C   0  0  0  0  0  0  0  0  0  0  0  0
    3.4042   -0.5542    0.0000 C   0  0  3  0  0  0  0  0  0  0  0  0
    2.7542    0.5625    0.0000 C   0  0  0  0  0  0  0  0  0  0  0  0
    4.0542    0.5625    0.0000 C   0  0  0  0  0  0  0  0  0  0  0  0
    3.4042   -1.3042    0.0000 C   0  0  0  0  0  0  0  0  0  0  0  0
    1.2667   -4.8875    0.0000 N   0  3  0  0  0  0  0  0  0  0  0  0
    3.4042    0.9458    0.0000 O   0  0  0  0  0  0  0  0  0  0  0  0
    3.0292   -2.4542    0.0000 C   0  0  0  0  0  0  0  0  0  0  0  0
    2.1000   -0.5542    0.0000 C   0  0  0  0  0  0  0  0  0  0  0  0
    4.7167   -0.5542    0.0000 C   0  0  0  0  0  0  0  0  0  0  0  0
    2.8000   -1.7500    0.0000 O   0  0  0  0  0  0  0  0  0  0  0  0
    1.7042   -4.2792    0.0000 C   0  0  0  0  0  0  0  0  0  0  0  0
    2.5875   -3.0667    0.0000 C   0  0  0  0  0  0  0  0  0  0  0  0
    2.4542   -4.3542    0.0000 C   0  0  0  0  0  0  0  0  0  0  0  0
    2.9000   -3.7542    0.0000 C   0  0  0  0  0  0  0  0  0  0  0  0
    4.0167   -1.7500    0.0000 C   0  0  0  0  0  0  0  0  0  0  0  0
    3.7792   -2.4542    0.0000 C   0  0  0  0  0  0  0  0  0  0  0  0
    1.4042   -3.6000    0.0000 C   0  0  0  0  0  0  0  0  0  0  0  0
    1.8500   -2.9875    0.0000 C   0  0  0  0  0  0  0  0  0  0  0  0
    4.7167    0.9458    0.0000 C   0  0  0  0  0  0  0  0  0  0  0  0
    2.1000    0.9458    0.0000 C   0  0  0  0  0  0  0  0  0  0  0  0
    1.4500    0.5625    0.0000 C   0  0  3  0  0  0  0  0  0  0  0  0
    5.3667    0.5625    0.0000 C   0  0  3  0  0  0  0  0  0  0  0  0
    5.3667   -0.1792    0.0000 C   0  0  0  0  0  0  0  0  0  0  0  0
    1.4500   -0.1792    0.0000 C   0  0  0  0  0  0  0  0  0  0  0  0
    0.5292   -4.8042    0.0000 O   0  5  0  0  0  0  0  0  0  0  0  0
    1.5792   -5.5792    0.0000 O   0  0  0  0  0  0  0  0  0  0  0  0
    2.1000   -1.3042    0.0000 O   0  0  0  0  0  0  0  0  0  0  0  0
    4.7167   -1.3042    0.0000 O   0  0  0  0  0  0  0  0  0  0  0  0
    2.7542   -5.0500    0.0000 C   0  0  0  0  0  0  0  0  0  0  0  0
    3.6375   -3.8292    0.0000 C   0  0  0  0  0  0  0  0  0  0  0  0
    0.8000    0.9458    0.0000 C   0  0  0  0  0  0  0  0  0  0  0  0
    0.8000    0.1958    0.0000 C   0  0  0  0  0  0  0  0  0  0  0  0
    6.0167    0.9458    0.0000 C   0  0  0  0  0  0  0  0  0  0  0  0
    4.9875    1.2125    0.0000 C   0  0  0  0  0  0  0  0  0  0  0  0
  2  3  1  0  0  0  0
  3  1  1  0  0  0  0
  4  1  2  0  0  0  0
  5  8  1  0  0  0  0
  6  3  1  0  0  0  0
  7 13  1  0  0  0  0
  8  4  1  0  0  0  0
  9 12  1  0  0  0  0
 10  1  1  0  0  0  0
 11  2  1  0  0  0  0
 12  6  1  0  0  0  0
 13 19  1  0  0  0  0
 14  9  1  0  0  0  0
 15 16  1  0  0  0  0
 16 14  2  0  0  0  0
 17  6  2  0  0  0  0
 18 17  1  0  0  0  0
 19 20  2  0  0  0  0
 20 14  1  0  0  0  0
 21  5  1  0  0  0  0
 22  4  1  0  0  0  0
 23 26  1  0  0  0  0
 24 21  1  0  0  0  0
 25 11  1  0  0  0  0
 26 10  1  0  0  0  0
 27  7  1  0  0  0  0
 28  7  2  0  0  0  0
 29 10  2  0  0  0  0
 30 11  2  0  0  0  0
 31 15  1  0  0  0  0
 32 16  1  0  0  0  0
 33 23  1  0  0  0  0
 34 23  1  0  0  0  0
 35 24  1  0  0  0  0
 36 24  1  0  0  0  0
 23 22  1  0  0  0  0
  5  2  2  0  0  0  0
 18  9  2  0  0  0  0
 24 25  1  0  0  0  0
 15 13  2  0  0  0  0
M  CHG  2   7   1  27  -1
M  END
> <#>
1078

> <PLATE>
LAT014

> <ROW>
F

> <COL>
6

> <COORD>
F06

> <LATID>
LAT014F06

> <Supplier>
Chembridge

> <Suplier_CAT#>
5626464

> <Name>
Novel

> <Sec_Name>
190_B03

> <Concentration_(mM)>
2.5

> <IC50_(µM)>
inactive

> <Yeast_Active?>
-

> <Pubchem_CID>
1041562

$$$$
