
  -ISIS-  08130814242D

 25 27  0  0  0  0  0  0  0  0999 V2000
   -0.3000   -1.7167    0.0000 C   0  0  0  0  0  0  0  0  0  0  0  0
    0.1542   -2.4000    0.0000 C   0  0  0  0  0  0  0  0  0  0  0  0
   -0.3000   -3.0500    0.0000 N   0  0  3  0  0  0  0  0  0  0  0  0
   -1.0833   -1.9667    0.0000 C   0  0  0  0  0  0  0  0  0  0  0  0
   -1.0833   -2.8000    0.0000 C   0  0  0  0  0  0  0  0  0  0  0  0
   -0.0333   -0.9292    0.0000 N   0  0  0  0  0  0  0  0  0  0  0  0
   -0.5833   -0.3042    0.0000 N   0  0  0  0  0  0  0  0  0  0  0  0
    1.0000   -2.4292    0.0000 O   0  0  0  0  0  0  0  0  0  0  0  0
   -0.8708    1.0708    0.0000 C   0  0  0  0  0  0  0  0  0  0  0  0
    1.5542    1.5500    0.0000 C   0  0  0  0  0  0  0  0  0  0  0  0
   -0.6208    1.8458    0.0000 C   0  0  0  0  0  0  0  0  0  0  0  0
    0.2000    2.0208    0.0000 O   0  0  0  0  0  0  0  0  0  0  0  0
   -0.3208    0.4625    0.0000 C   0  0  0  0  0  0  0  0  0  0  0  0
    1.8292    2.3333    0.0000 O   0  0  0  0  0  0  0  0  0  0  0  0
    0.7500    1.3958    0.0000 C   0  0  0  0  0  0  0  0  0  0  0  0
   -0.0208   -3.8500    0.0000 C   0  0  0  0  0  0  0  0  0  0  0  0
   -1.7958   -1.5542    0.0000 C   0  0  0  0  0  0  0  0  0  0  0  0
    2.1000    0.9333    0.0000 O   0  0  0  0  0  0  0  0  0  0  0  0
   -1.7958   -3.2042    0.0000 C   0  0  0  0  0  0  0  0  0  0  0  0
   -1.6708    0.8958    0.0000 C   0  0  0  0  0  0  0  0  0  0  0  0
   -1.1833    2.4458    0.0000 C   0  0  0  0  0  0  0  0  0  0  0  0
   -2.5125   -1.9667    0.0000 C   0  0  0  0  0  0  0  0  0  0  0  0
   -2.5125   -2.8000    0.0000 C   0  0  0  0  0  0  0  0  0  0  0  0
   -2.2208    1.5000    0.0000 C   0  0  0  0  0  0  0  0  0  0  0  0
   -1.9708    2.2708    0.0000 C   0  0  0  0  0  0  0  0  0  0  0  0
  2  1  1  0  0  0  0
  3  2  1  0  0  0  0
  4  1  1  0  0  0  0
  5  4  2  0  0  0  0
  6  1  2  0  0  0  0
  7  6  1  0  0  0  0
  8  2  2  0  0  0  0
  9 13  1  0  0  0  0
 10 15  1  0  0  0  0
 11  9  2  0  0  0  0
 12 11  1  0  0  0  0
 13  7  2  0  0  0  0
 14 10  2  0  0  0  0
 15 12  1  0  0  0  0
 16  3  1  0  0  0  0
 17  4  1  0  0  0  0
 18 10  1  0  0  0  0
 19  5  1  0  0  0  0
 20  9  1  0  0  0  0
 21 11  1  0  0  0  0
 22 17  2  0  0  0  0
 23 22  1  0  0  0  0
 24 20  2  0  0  0  0
 25 24  1  0  0  0  0
  5  3  1  0  0  0  0
 23 19  2  0  0  0  0
 21 25  2  0  0  0  0
M  END
> <#>
2008

> <PLATE>
LAT026

> <ROW>
H

> <COL>
2

> <COORD>
H02

> <LATID>
LAT026H02

> <Supplier>
Chembridge

> <Suplier_CAT#>
5637808

> <Sec_Name>
194_E11

> <Concentration_(mM)>
2.5

> <IC50_(µM)>
>100

> <Yeast_Active?>
-

> <Pubchem_CID>
NULL

$$$$
