
  -ISIS-  08130814242D

  8  8  0  0  0  0  0  0  0  0999 V2000
    7.9750   -3.2917    0.0000 C   0  0  0  0  0  0  0  0  0  0  0  0
    7.3500   -4.3742    0.0000 C   0  0  0  0  0  0  0  0  0  0  0  0
    6.1000   -4.3742    0.0000 C   0  0  0  0  0  0  0  0  0  0  0  0
    5.4750   -3.2917    0.0000 C   0  0  0  0  0  0  0  0  0  0  0  0
    6.1000   -2.2091    0.0000 C   0  0  0  0  0  0  0  0  0  0  0  0
    7.3500   -2.2091    0.0000 C   0  0  0  0  0  0  0  0  0  0  0  0
    9.2250   -3.2917    0.0000 O   0  0  0  0  0  0  0  0  0  0  0  0
    4.2250   -3.2917    0.0000 O   0  0  0  0  0  0  0  0  0  0  0  0
  1  2  1  0  0  0  0
  2  3  2  0  0  0  0
  3  4  1  0  0  0  0
  4  5  2  0  0  0  0
  5  6  1  0  0  0  0
  1  6  2  0  0  0  0
  1  7  1  0  0  0  0
  4  8  1  0  0  0  0
M  END
> <#>
372

> <PLATE>
LAT005

> <ROW>
D

> <COL>
8

> <COORD>
D08

> <LATID>
LAT005D08

> <Supplier>
Fisher

> <Suplier_CAT#>
H-329

> <Name>
Hydroquinone

> <Concentration_(mM)>
2.5

> <IC50_(µM)>
inactive

> <Yeast_Active?>
-

> <Pubchem_CID>
785

$$$$
