
  -ISIS-  08130814242D

 21 22  0  0  0  0  0  0  0  0999 V2000
   -3.6458    1.1708    0.0000 P   0  0  3  0  0  0  0  0  0  0  0  0
   -3.1625   -0.3042    0.0000 N   0  0  3  0  0  0  0  0  0  0  0  0
   -3.0458    1.8333    0.0000 C   0  0  3  0  0  0  0  0  0  0  0  0
   -2.9833    0.5708    0.0000 C   0  0  0  0  0  0  0  0  0  0  0  0
   -4.0208   -0.5875    0.0000 C   0  0  0  0  0  0  0  0  0  0  0  0
   -3.3000    2.6708    0.0000 C   0  0  0  0  0  0  0  0  0  0  0  0
   -4.3000    1.7958    0.0000 O   0  0  0  0  0  0  0  0  0  0  0  0
   -2.1833    1.6333    0.0000 C   0  0  0  0  0  0  0  0  0  0  0  0
   -4.7208   -0.0667    0.0000 O   0  0  0  0  0  0  0  0  0  0  0  0
   -2.7000    3.3333    0.0000 O   0  0  0  0  0  0  0  0  0  0  0  0
   -4.2458    0.5125    0.0000 O   0  0  0  0  0  0  0  0  0  0  0  0
   -2.6458   -1.0042    0.0000 C   0  0  0  0  0  0  0  0  0  0  0  0
   -4.1833    2.8708    0.0000 O   0  0  0  0  0  0  0  0  0  0  0  0
   -1.5625    2.2708    0.0000 C   0  0  0  0  0  0  0  0  0  0  0  0
   -4.0208   -1.4667    0.0000 C   0  0  0  0  0  0  0  0  0  0  0  0
   -3.1625   -1.7500    0.0000 C   0  0  0  0  0  0  0  0  0  0  0  0
   -0.7000    2.0708    0.0000 C   0  0  0  0  0  0  0  0  0  0  0  0
   -1.8458    3.1333    0.0000 C   0  0  0  0  0  0  0  0  0  0  0  0
   -1.2208    3.7958    0.0000 C   0  0  0  0  0  0  0  0  0  0  0  0
   -0.0833    2.7333    0.0000 C   0  0  0  0  0  0  0  0  0  0  0  0
   -0.3625    3.5958    0.0000 C   0  0  0  0  0  0  0  0  0  0  0  0
  2  4  1  0  0  0  0
  3  1  1  0  0  0  0
  4  1  1  0  0  0  0
  5  2  1  0  0  0  0
  6  3  1  0  0  0  0
  7  1  2  0  0  0  0
  8  3  1  0  0  0  0
  9  5  2  0  0  0  0
 10  6  2  0  0  0  0
 11  1  1  0  0  0  0
 12  2  1  0  0  0  0
 13  6  1  0  0  0  0
 14  8  1  0  0  0  0
 15  5  1  0  0  0  0
 16 12  1  0  0  0  0
 17 14  2  0  0  0  0
 18 14  1  0  0  0  0
 19 18  2  0  0  0  0
 20 17  1  0  0  0  0
 21 19  1  0  0  0  0
 15 16  1  0  0  0  0
 20 21  2  0  0  0  0
M  END
> <#>
2006

> <PLATE>
LAT026

> <ROW>
F

> <COL>
2

> <COORD>
F02

> <LATID>
LAT026F02

> <Supplier>
Chembridge

> <Suplier_CAT#>
5587264

> <Sec_Name>
184_C04

> <Concentration_(mM)>
2.5

> <IC50_(µM)>
inactive

> <Yeast_Active?>
-

> <Pubchem_CID>
684743

$$$$
