
  -ISIS-  08130814242D

 20 21  0  0  0  0  0  0  0  0999 V2000
   -2.2708    0.3708    0.0000 C   0  0  0  0  0  0  0  0  0  0  0  0
   -3.0833   -0.0917    0.0000 C   0  0  0  0  0  0  0  0  0  0  0  0
   -2.2708    1.3125    0.0000 C   0  0  0  0  0  0  0  0  0  0  0  0
   -3.8958    0.3708    0.0000 C   0  0  0  0  0  0  0  0  0  0  0  0
   -3.8958    1.3125    0.0000 C   0  0  0  0  0  0  0  0  0  0  0  0
   -1.4625   -0.0917    0.0000 C   0  0  0  0  0  0  0  0  0  0  0  0
   -3.0833    1.7833    0.0000 C   0  0  0  0  0  0  0  0  0  0  0  0
   -0.6500    0.3708    0.0000 C   0  0  0  0  0  0  0  0  0  0  0  0
   -1.4625   -1.0292    0.0000 O   0  0  0  0  0  0  0  0  0  0  0  0
    0.1542   -0.0917    0.0000 O   0  0  0  0  0  0  0  0  0  0  0  0
   -3.0833   -1.0292    0.0000 O   0  0  0  0  0  0  0  0  0  0  0  0
    0.9667    0.3708    0.0000 C   0  0  0  0  0  0  0  0  0  0  0  0
   -4.7083    1.7833    0.0000 O   0  0  0  0  0  0  0  0  0  0  0  0
    2.5875    1.3125    0.0000 C   0  0  0  0  0  0  0  0  0  0  0  0
    1.7792   -0.0917    0.0000 C   0  0  0  0  0  0  0  0  0  0  0  0
    0.9667    1.3125    0.0000 C   0  0  0  0  0  0  0  0  0  0  0  0
    1.7792    1.7833    0.0000 C   0  0  0  0  0  0  0  0  0  0  0  0
    2.5875    0.3708    0.0000 C   0  0  0  0  0  0  0  0  0  0  0  0
   -3.0833    2.7125    0.0000 C   0  0  0  0  0  0  0  0  0  0  0  0
    3.4000    1.7833    0.0000 C   0  0  0  0  0  0  0  0  0  0  0  0
  2  1  1  0  0  0  0
  3  1  2  0  0  0  0
  4  2  2  0  0  0  0
  5  7  2  0  0  0  0
  6  1  1  0  0  0  0
  7  3  1  0  0  0  0
  8  6  1  0  0  0  0
  9  6  2  0  0  0  0
 10  8  1  0  0  0  0
 11  2  1  0  0  0  0
 12 10  1  0  0  0  0
 13  5  1  0  0  0  0
 14 17  1  0  0  0  0
 15 12  2  0  0  0  0
 16 12  1  0  0  0  0
 17 16  2  0  0  0  0
 18 15  1  0  0  0  0
 19  7  1  0  0  0  0
 20 14  1  0  0  0  0
  4  5  1  0  0  0  0
 14 18  2  0  0  0  0
M  END
> <#>
1175

> <PLATE>
LAT015

> <ROW>
G

> <COL>
8

> <COORD>
G08

> <LATID>
LAT015G08

> <Supplier>
Chembridge

> <Suplier_CAT#>
5141477

> <Name>
Novel

> <Concentration_(mM)>
2.5

> <IC50_(µM)>
>100

> <Yeast_Active?>
-

> <Pubchem_CID>
2829742

$$$$
