
  -ISIS-  08130814242D

 26 27  0  0  0  0  0  0  0  0999 V2000
    6.3292   -2.2417    0.0000 N   0  0  0  0  0  0  0  0  0  0  0  0
    6.7375   -1.5250    0.0000 C   0  0  0  0  0  0  0  0  0  0  0  0
    5.5167   -2.0792    0.0000 C   0  0  0  0  0  0  0  0  0  0  0  0
    6.1792   -0.9167    0.0000 S   0  0  0  0  0  0  0  0  0  0  0  0
    5.4292   -1.2542    0.0000 C   0  0  3  0  0  0  0  0  0  0  0  0
   -0.2625   -1.2792    0.0000 N   0  0  0  0  0  0  0  0  0  0  0  0
    7.5542   -1.4292    0.0000 O   0  0  0  0  0  0  0  0  0  0  0  0
    4.9125   -2.6292    0.0000 O   0  0  0  0  0  0  0  0  0  0  0  0
    4.7125   -0.8542    0.0000 C   0  0  0  0  0  0  0  0  0  0  0  0
   -0.2625   -2.1042    0.0000 C   0  0  0  0  0  0  0  0  0  0  0  0
   -0.9833   -0.8667    0.0000 C   0  0  0  0  0  0  0  0  0  0  0  0
    4.0000   -1.2667    0.0000 C   0  0  0  0  0  0  0  0  0  0  0  0
    2.5792   -2.1000    0.0000 C   0  0  0  0  0  0  0  0  0  0  0  0
    0.4500   -2.5167    0.0000 C   0  0  0  0  0  0  0  0  0  0  0  0
   -1.6958   -1.2792    0.0000 C   0  0  0  0  0  0  0  0  0  0  0  0
   -0.9833   -2.5167    0.0000 C   0  0  0  0  0  0  0  0  0  0  0  0
    4.0042   -2.0917    0.0000 C   0  0  0  0  0  0  0  0  0  0  0  0
    3.2792   -0.8667    0.0000 C   0  0  0  0  0  0  0  0  0  0  0  0
    1.1625   -2.1042    0.0000 C   0  0  0  0  0  0  0  0  0  0  0  0
    3.3000   -2.5042    0.0000 C   0  0  0  0  0  0  0  0  0  0  0  0
    2.5792   -1.2792    0.0000 C   0  0  0  0  0  0  0  0  0  0  0  0
   -1.6958   -2.1042    0.0000 C   0  0  0  0  0  0  0  0  0  0  0  0
    1.8750   -2.5125    0.0000 O   0  0  0  0  0  0  0  0  0  0  0  0
   -2.4083   -0.8667    0.0000 C   0  0  0  0  0  0  0  0  0  0  0  0
   -2.4083   -0.0417    0.0000 C   0  0  0  0  0  0  0  0  0  0  0  0
    7.6667   -2.2417    0.0000 Cl  0  0  0  0  0  0  0  0  0  0  0  0
  2  1  1  0  0  0  0
  3  1  1  0  0  0  0
  4  2  1  0  0  0  0
  5  3  1  0  0  0  0
  6 10  1  0  0  0  0
  7  2  2  0  0  0  0
  8  3  2  0  0  0  0
  9  5  1  0  0  0  0
 10 14  1  0  0  0  0
 11  6  2  0  0  0  0
 12  9  1  0  0  0  0
 13 20  2  0  0  0  0
 14 19  1  0  0  0  0
 15 22  2  0  0  0  0
 16 10  2  0  0  0  0
 17 12  2  0  0  0  0
 18 12  1  0  0  0  0
 19 23  1  0  0  0  0
 20 17  1  0  0  0  0
 21 18  2  0  0  0  0
 22 16  1  0  0  0  0
 23 13  1  0  0  0  0
 24 15  1  0  0  0  0
 25 24  1  0  0  0  0
  4  5  1  0  0  0  0
 21 13  1  0  0  0  0
 11 15  1  0  0  0  0
M  END
> <#>
147

> <PLATE>
LAT002

> <ROW>
C

> <COL>
10

> <COORD>
C10

> <LATID>
LAT002C10

> <Supplier>
Microsource

> <Suplier_CAT#>
01504401

> <Name>
Pioglitazone Hydrochloride

> <Concentration_(mM)>
2.5

> <IC50_(µM)>
>100

> <Yeast_Active?>
-

> <Pubchem_CID>
4829

> <Description>
Antidiabetic

$$$$
