
  -ISIS-  08130814242D

 27 30  0  0  0  0  0  0  0  0999 V2000
   -2.5708    0.6500    0.0000 C   0  0  0  0  0  0  0  0  0  0  0  0
   -1.9958    0.9958    0.0000 N   0  0  0  0  0  0  0  0  0  0  0  0
   -2.5708   -0.0042    0.0000 C   0  0  0  0  0  0  0  0  0  0  0  0
   -1.9958   -0.3500    0.0000 N   0  0  0  0  0  0  0  0  0  0  0  0
   -1.4208   -0.0042    0.0000 C   0  0  0  0  0  0  0  0  0  0  0  0
   -1.4208    0.6500    0.0000 N   0  0  0  0  0  0  0  0  0  0  0  0
   -0.2625    0.0125    0.0000 N   0  0  0  0  0  0  0  0  0  0  0  0
   -0.8458   -0.3292    0.0000 N   0  0  0  0  0  0  0  0  0  0  0  0
   -3.1500    0.9958    0.0000 C   0  0  0  0  0  0  0  0  0  0  0  0
   -3.1500   -0.3500    0.0000 C   0  0  0  0  0  0  0  0  0  0  0  0
    2.1000    0.2708    0.0000 N   0  0  0  0  0  0  0  0  0  0  0  0
    0.4042   -0.2667    0.0000 C   0  0  0  0  0  0  0  0  0  0  0  0
    0.9375    0.1333    0.0000 C   0  0  0  0  0  0  0  0  0  0  0  0
    1.5542   -0.1292    0.0000 C   0  0  0  0  0  0  0  0  0  0  0  0
    2.0042    0.9500    0.0000 C   0  0  0  0  0  0  0  0  0  0  0  0
   -3.7458    0.6500    0.0000 C   0  0  0  0  0  0  0  0  0  0  0  0
   -3.1500    1.6708    0.0000 C   0  0  0  0  0  0  0  0  0  0  0  0
   -3.7458   -0.0042    0.0000 C   0  0  0  0  0  0  0  0  0  0  0  0
   -3.1500   -1.0167    0.0000 C   0  0  0  0  0  0  0  0  0  0  0  0
    0.8500    0.8000    0.0000 C   0  0  0  0  0  0  0  0  0  0  0  0
    1.3875    1.2125    0.0000 C   0  0  0  0  0  0  0  0  0  0  0  0
   -4.3208    0.9958    0.0000 C   0  0  0  0  0  0  0  0  0  0  0  0
   -3.7333   -1.3542    0.0000 C   0  0  0  0  0  0  0  0  0  0  0  0
   -3.7458    2.0000    0.0000 C   0  0  0  0  0  0  0  0  0  0  0  0
   -4.3208   -0.3500    0.0000 C   0  0  0  0  0  0  0  0  0  0  0  0
   -4.3208   -1.0292    0.0000 C   0  0  0  0  0  0  0  0  0  0  0  0
   -4.3208    1.6708    0.0000 C   0  0  0  0  0  0  0  0  0  0  0  0
  2  1  2  0  0  0  0
  3  1  1  0  0  0  0
  4  3  2  0  0  0  0
  5  4  1  0  0  0  0
  6  2  1  0  0  0  0
  7  8  1  0  0  0  0
  8  5  1  0  0  0  0
  9  1  1  0  0  0  0
 10  3  1  0  0  0  0
 11 14  1  0  0  0  0
 12  7  2  0  0  0  0
 13 12  1  0  0  0  0
 14 13  2  0  0  0  0
 15 21  1  0  0  0  0
 16  9  1  0  0  0  0
 17  9  2  0  0  0  0
 18 10  2  0  0  0  0
 19 10  1  0  0  0  0
 20 13  1  0  0  0  0
 21 20  2  0  0  0  0
 22 16  2  0  0  0  0
 23 19  2  0  0  0  0
 24 17  1  0  0  0  0
 25 18  1  0  0  0  0
 26 23  1  0  0  0  0
 27 24  2  0  0  0  0
  6  5  2  0  0  0  0
 27 22  1  0  0  0  0
 26 25  2  0  0  0  0
 15 11  2  0  0  0  0
M  END
> <#>
1638

> <PLATE>
LAT021

> <ROW>
F

> <COL>
6

> <COORD>
F06

> <LATID>
LAT021F06

> <Supplier>
Chembridge

> <Suplier_CAT#>
5480884

> <Name>
Novel

> <Concentration_(mM)>
2.5

> <IC50_(µM)>
inactive

> <Yeast_Active?>
-

> <Pubchem_CID>
354852

$$$$
