
  -ISIS-  08130814242D

 17 18  0  0  0  0  0  0  0  0999 V2000
   -1.8208   -0.6500    0.0000 N   0  0  3  0  0  0  0  0  0  0  0  0
   -2.8208   -1.2292    0.0000 C   0  0  0  0  0  0  0  0  0  0  0  0
   -3.8000   -0.6500    0.0000 C   0  0  0  0  0  0  0  0  0  0  0  0
   -0.8208   -1.2292    0.0000 C   0  0  3  0  0  0  0  0  0  0  0  0
   -0.8208   -2.3667    0.0000 C   0  0  0  0  0  0  0  0  0  0  0  0
   -3.8000    0.5125    0.0000 C   0  0  0  0  0  0  0  0  0  0  0  0
   -5.8000   -0.6500    0.0000 N   0  0  0  0  0  0  0  0  0  0  0  0
   -2.8208   -2.3667    0.0000 O   0  0  0  0  0  0  0  0  0  0  0  0
   -1.8208   -2.9500    0.0000 O   0  0  0  0  0  0  0  0  0  0  0  0
   -4.8000   -1.2292    0.0000 C   0  0  0  0  0  0  0  0  0  0  0  0
   -1.6125    0.4500    0.0000 C   0  0  0  0  0  0  0  0  0  0  0  0
   -4.8000    1.0958    0.0000 C   0  0  0  0  0  0  0  0  0  0  0  0
    0.1792   -2.9500    0.0000 O   0  0  0  0  0  0  0  0  0  0  0  0
   -4.8000    2.2333    0.0000 Br  0  0  0  0  0  0  0  0  0  0  0  0
    0.0375   -0.4292    0.0000 C   0  0  0  0  0  0  0  0  0  0  0  0
   -5.8000    0.5125    0.0000 C   0  0  0  0  0  0  0  0  0  0  0  0
   -0.4500    0.6125    0.0000 C   0  0  0  0  0  0  0  0  0  0  0  0
  2  1  1  0  0  0  0
  3  2  1  0  0  0  0
  4  1  1  0  0  0  0
  5  4  1  0  0  0  0
  6  3  1  0  0  0  0
  7 10  1  0  0  0  0
  8  2  2  0  0  0  0
  9  5  2  0  0  0  0
 10  3  2  0  0  0  0
 11  1  1  0  0  0  0
 12  6  2  0  0  0  0
 13  5  1  0  0  0  0
 14 12  1  0  0  0  0
 15  4  1  0  0  0  0
 16  7  2  0  0  0  0
 17 11  1  0  0  0  0
 17 15  1  0  0  0  0
 12 16  1  0  0  0  0
M  END
> <#>
1985

> <PLATE>
LAT025

> <ROW>
A

> <COL>
10

> <COORD>
A10

> <LATID>
LAT025A10

> <Supplier>
Chembridge

> <Suplier_CAT#>
5491946

> <Sec_Name>
144_F03

> <Concentration_(mM)>
2.5

> <IC50_(µM)>
inactive

> <Yeast_Active?>
-

> <Pubchem_CID>
770210

$$$$
