
  -ISIS-  08130814242D

 18 19  0  0  0  0  0  0  0  0999 V2000
    1.0042   -1.0042    0.0000 C   0  0  0  0  0  0  0  0  0  0  0  0
    1.0042   -0.2500    0.0000 C   0  0  0  0  0  0  0  0  0  0  0  0
    0.3500    0.1000    0.0000 C   0  0  0  0  0  0  0  0  0  0  0  0
    1.7000   -1.4042    0.0000 C   0  0  0  0  0  0  0  0  0  0  0  0
    0.3500   -1.4000    0.0000 C   0  0  0  0  0  0  0  0  0  0  0  0
   -0.2833   -0.2500    0.0000 C   0  0  0  0  0  0  0  0  0  0  0  0
    2.3500   -1.0500    0.0000 C   0  0  0  0  0  0  0  0  0  0  0  0
    1.7000   -2.2000    0.0000 O   0  0  0  0  0  0  0  0  0  0  0  0
   -0.2833   -1.0042    0.0000 C   0  0  0  0  0  0  0  0  0  0  0  0
    1.5000    0.0000    0.0000 O   0  0  0  0  0  0  0  0  0  0  0  0
    2.3500   -0.3000    0.0000 C   0  0  0  0  0  0  0  0  0  0  0  0
   -0.7500    0.0000    0.0000 O   0  0  0  0  0  0  0  0  0  0  0  0
    0.3500    0.7833    0.0000 C   0  0  0  0  0  0  0  0  0  0  0  0
    1.8500    0.0000    0.0000 C   0  0  0  0  0  0  0  0  0  0  0  0
    3.0042    0.1000    0.0000 C   0  0  0  0  0  0  0  0  0  0  0  0
    3.0042    0.8625    0.0000 C   0  0  0  0  0  0  0  0  0  0  0  0
    1.8042    0.7625    0.0000 C   0  0  0  0  0  0  0  0  0  0  0  0
    2.4417    1.1458    0.0000 C   0  0  0  0  0  0  0  0  0  0  0  0
  2  1  2  0  0  0  0
  3  2  1  0  0  0  0
  4  1  1  0  0  0  0
  5  1  1  0  0  0  0
  6  9  1  0  0  0  0
  7  4  1  0  0  0  0
  8  4  2  0  0  0  0
  9  5  2  0  0  0  0
 10  2  1  0  0  0  0
 11  7  1  0  0  0  0
 12  6  1  0  0  0  0
 13  3  1  0  0  0  0
 14 11  2  0  0  0  0
 15 11  1  0  0  0  0
 16 15  2  0  0  0  0
 17 14  1  0  0  0  0
 18 16  1  0  0  0  0
  3  6  2  0  0  0  0
 18 17  2  0  0  0  0
M  END
> <#>
1268

> <PLATE>
LAT016

> <ROW>
D

> <COL>
10

> <COORD>
D10

> <LATID>
LAT016D10

> <Supplier>
Chembridge

> <Suplier_CAT#>
6642835

> <Name>
Novel

> <Concentration_(mM)>
2.5

> <IC50_(µM)>
57

> <Yeast_Active?>
-

> <Pubchem_CID>
NULL

$$$$
