
  -ISIS-  08130814242D

 17 18  0  0  0  0  0  0  0  0999 V2000
    6.7042   -3.5125    0.0000 C   0  0  0  0  0  0  0  0  0  0  0  0
    8.0042   -3.5125    0.0000 C   0  0  0  0  0  0  0  0  0  0  0  0
    6.0417   -3.1292    0.0000 C   0  0  0  0  0  0  0  0  0  0  0  0
    7.3542   -3.1375    0.0000 C   0  0  1  0  0  0  0  0  0  0  0  0
    5.3917   -3.5125    0.0000 C   0  0  0  0  0  0  0  0  0  0  0  0
    5.3917   -4.2667    0.0000 C   0  0  0  0  0  0  0  0  0  0  0  0
    6.7042   -4.2667    0.0000 C   0  0  0  0  0  0  0  0  0  0  0  0
    8.0042   -4.2542    0.0000 O   0  0  0  0  0  0  0  0  0  0  0  0
    4.7417   -4.6417    0.0000 C   0  0  0  0  0  0  0  0  0  0  0  0
    6.0417   -4.6417    0.0000 C   0  0  0  0  0  0  0  0  0  0  0  0
    4.7417   -3.1292    0.0000 C   0  0  0  0  0  0  0  0  0  0  0  0
    4.0917   -4.2667    0.0000 C   0  0  0  0  0  0  0  0  0  0  0  0
    8.6417   -3.1375    0.0000 O   0  0  0  0  0  0  0  0  0  0  0  0
    4.0917   -3.5125    0.0000 C   0  0  0  0  0  0  0  0  0  0  0  0
    3.4417   -4.6417    0.0000 O   0  0  0  0  0  0  0  0  0  0  0  0
    7.3542   -2.3875    0.0000 C   0  0  0  0  0  0  0  0  0  0  0  0
    2.7917   -4.2667    0.0000 C   0  0  0  0  0  0  0  0  0  0  0  0
  2  4  1  0  0  0  0
  3  1  1  0  0  0  0
  4  1  1  0  0  0  0
  5  3  2  0  0  0  0
  6 10  2  0  0  0  0
  7  1  2  0  0  0  0
  8  2  2  0  0  0  0
  9  6  1  0  0  0  0
 10  7  1  0  0  0  0
 11  5  1  0  0  0  0
 12  9  2  0  0  0  0
 13  2  1  0  0  0  0
 14 11  2  0  0  0  0
 15 12  1  0  0  0  0
  4 16  1  6  0  0  0
 17 15  1  0  0  0  0
  5  6  1  0  0  0  0
 14 12  1  0  0  0  0
M  END
> <#>
113

> <PLATE>
LAT002

> <ROW>
A

> <COL>
6

> <COORD>
A06

> <LATID>
LAT002A06

> <Supplier>
Microsource

> <Suplier_CAT#>
01500425

> <Name>
(+)Naproxen

> <Concentration_(mM)>
2.5

> <IC50_(µM)>
90

> <Yeast_Active?>
-

> <Pubchem_CID>
1302

> <Description>
Antiinflammatory, Analgesic, Antipyretic

$$$$
