
  -ISIS-  08130814242D

 25 27  0  0  0  0  0  0  0  0999 V2000
    2.0417    1.3625    0.0000 C   0  0  0  0  0  0  0  0  0  0  0  0
    2.7917    1.3625    0.0000 C   0  0  0  0  0  0  0  0  0  0  0  0
    1.6667    2.0208    0.0000 C   0  0  0  0  0  0  0  0  0  0  0  0
    2.0417    2.6583    0.0000 S   0  0  0  0  0  0  0  0  0  0  0  0
    3.5417    3.9583    0.0000 N   0  0  0  0  0  0  0  0  0  0  0  0
    2.7917    3.9583    0.0000 C   0  0  0  0  0  0  0  0  0  0  0  0
    1.6667    3.3083    0.0000 C   0  0  0  0  0  0  0  0  0  0  0  0
    2.0417    3.9583    0.0000 C   0  0  0  0  0  0  0  0  0  0  0  0
    3.1667    2.0208    0.0000 N   0  0  0  0  0  0  0  0  0  0  0  0
    5.0417    2.6583    0.0000 N   0  0  0  0  0  0  0  0  0  0  0  0
    3.1667    0.7125    0.0000 O   0  0  0  0  0  0  0  0  0  0  0  0
    3.9167    2.0208    0.0000 C   0  0  0  0  0  0  0  0  0  0  0  0
    4.2917    2.6583    0.0000 C   0  0  0  0  0  0  0  0  0  0  0  0
    1.6667    0.7125    0.0000 C   0  0  0  0  0  0  0  0  0  0  0  0
    0.9167    2.0208    0.0000 C   0  0  0  0  0  0  0  0  0  0  0  0
    1.6667    4.6042    0.0000 C   0  0  0  0  0  0  0  0  0  0  0  0
    0.9167    3.3083    0.0000 C   0  0  0  0  0  0  0  0  0  0  0  0
    5.4167    3.3083    0.0000 C   0  0  0  0  0  0  0  0  0  0  0  0
    3.9167    3.3083    0.0000 C   0  0  0  0  0  0  0  0  0  0  0  0
    0.9167    0.7125    0.0000 C   0  0  0  0  0  0  0  0  0  0  0  0
    0.5417    1.3625    0.0000 C   0  0  0  0  0  0  0  0  0  0  0  0
    5.0417    3.9583    0.0000 C   0  0  0  0  0  0  0  0  0  0  0  0
    0.9167    4.6042    0.0000 C   0  0  0  0  0  0  0  0  0  0  0  0
    0.5417    3.9583    0.0000 C   0  0  0  0  0  0  0  0  0  0  0  0
    4.2917    3.9583    0.0000 C   0  0  0  0  0  0  0  0  0  0  0  0
  2  1  1  0  0  0  0
  3  1  2  0  0  0  0
  4  3  1  0  0  0  0
  5  6  3  0  0  0  0
  6  8  1  0  0  0  0
  7  4  1  0  0  0  0
  8  7  1  0  0  0  0
  9  2  1  0  0  0  0
 10 13  2  0  0  0  0
 11  2  2  0  0  0  0
 12  9  1  0  0  0  0
 13 12  1  0  0  0  0
 14  1  1  0  0  0  0
 15  3  1  0  0  0  0
 16  8  2  0  0  0  0
 17  7  2  0  0  0  0
 18 10  1  0  0  0  0
 19 13  1  0  0  0  0
 20 14  2  0  0  0  0
 21 20  1  0  0  0  0
 22 25  1  0  0  0  0
 23 24  2  0  0  0  0
 24 17  1  0  0  0  0
 25 19  2  0  0  0  0
 21 15  2  0  0  0  0
 23 16  1  0  0  0  0
 22 18  2  0  0  0  0
M  END
> <#>
1448

> <PLATE>
LAT019

> <ROW>
H

> <COL>
2

> <COORD>
H02

> <LATID>
LAT019H02

> <Supplier>
Chembridge

> <Suplier_CAT#>
9010083

> <Name>
Novel

> <Concentration_(mM)>
2.5

> <IC50_(µM)>
>100

> <Yeast_Active?>
-

> <Pubchem_CID>
2993866

$$$$
