
  -ISIS-  08130814242D

 32 35  0  0  0  0  0  0  0  0999 V2000
   -0.3958    0.5833    0.0000 N   0  0  3  0  0  0  0  0  0  0  0  0
    0.2042    0.2125    0.0000 C   0  0  0  0  0  0  0  0  0  0  0  0
   -0.3958    1.3208    0.0000 C   0  0  0  0  0  0  0  0  0  0  0  0
    0.8542    0.5833    0.0000 C   0  0  3  0  0  0  0  0  0  0  0  0
    0.8542    1.3208    0.0000 C   0  0  0  0  0  0  0  0  0  0  0  0
    2.3500    0.5833    0.0000 C   0  0  0  0  0  0  0  0  0  0  0  0
    1.6042    0.2208    0.0000 N   0  0  3  0  0  0  0  0  0  0  0  0
    3.0375    0.2000    0.0000 N   0  0  0  0  0  0  0  0  0  0  0  0
   -1.1208    0.2000    0.0000 C   0  0  0  0  0  0  0  0  0  0  0  0
    2.3500    1.4458    0.0000 S   0  0  0  0  0  0  0  0  0  0  0  0
    1.6042   -0.6292    0.0000 C   0  0  0  0  0  0  0  0  0  0  0  0
    0.2042   -0.6500    0.0000 O   0  0  0  0  0  0  0  0  0  0  0  0
   -1.1208    1.7333    0.0000 O   0  0  0  0  0  0  0  0  0  0  0  0
   -1.1208   -0.6875    0.0000 C   0  0  0  0  0  0  0  0  0  0  0  0
   -1.8833    0.6125    0.0000 C   0  0  0  0  0  0  0  0  0  0  0  0
    3.7500    0.6000    0.0000 C   0  0  0  0  0  0  0  0  0  0  0  0
    2.3792   -1.0167    0.0000 C   0  0  0  0  0  0  0  0  0  0  0  0
   -2.6125   -0.6875    0.0000 C   0  0  0  0  0  0  0  0  0  0  0  0
   -1.8833   -1.1000    0.0000 C   0  0  0  0  0  0  0  0  0  0  0  0
   -2.6125    0.2000    0.0000 C   0  0  0  0  0  0  0  0  0  0  0  0
   -3.3125   -1.1500    0.0000 F   0  0  0  0  0  0  0  0  0  0  0  0
    2.3792   -1.7375    0.0000 C   0  0  0  0  0  0  0  0  0  0  0  0
    3.7500    1.4625    0.0000 C   0  0  0  0  0  0  0  0  0  0  0  0
    4.4542    0.1708    0.0000 C   0  0  0  0  0  0  0  0  0  0  0  0
    3.1167   -2.1500    0.0000 C   0  0  0  0  0  0  0  0  0  0  0  0
    1.6375   -2.1500    0.0000 C   0  0  0  0  0  0  0  0  0  0  0  0
    5.2375    0.6000    0.0000 C   0  0  0  0  0  0  0  0  0  0  0  0
    3.1167   -3.0042    0.0000 C   0  0  0  0  0  0  0  0  0  0  0  0
    1.6375   -3.0042    0.0000 C   0  0  0  0  0  0  0  0  0  0  0  0
    4.4542    1.8708    0.0000 C   0  0  0  0  0  0  0  0  0  0  0  0
    5.2375    1.4625    0.0000 C   0  0  0  0  0  0  0  0  0  0  0  0
    2.3792   -3.4167    0.0000 C   0  0  0  0  0  0  0  0  0  0  0  0
  2  1  1  0  0  0  0
  3  1  1  0  0  0  0
  4  2  1  0  0  0  0
  5  3  1  0  0  0  0
  6  7  1  0  0  0  0
  7  4  1  0  0  0  0
  8  6  1  0  0  0  0
  9  1  1  0  0  0  0
 10  6  2  0  0  0  0
 11  7  1  0  0  0  0
 12  2  2  0  0  0  0
 13  3  2  0  0  0  0
 14  9  2  0  0  0  0
 15  9  1  0  0  0  0
 16  8  1  0  0  0  0
 17 11  1  0  0  0  0
 18 20  1  0  0  0  0
 19 14  1  0  0  0  0
 20 15  2  0  0  0  0
 21 18  1  0  0  0  0
 22 17  1  0  0  0  0
 23 16  1  0  0  0  0
 24 16  2  0  0  0  0
 25 22  1  0  0  0  0
 26 22  2  0  0  0  0
 27 24  1  0  0  0  0
 28 25  2  0  0  0  0
 29 26  1  0  0  0  0
 30 23  2  0  0  0  0
 31 27  2  0  0  0  0
 32 29  2  0  0  0  0
  5  4  1  0  0  0  0
 19 18  2  0  0  0  0
 32 28  1  0  0  0  0
 31 30  1  0  0  0  0
M  END
> <#>
932

> <PLATE>
LAT012

> <ROW>
D

> <COL>
8

> <COORD>
D08

> <LATID>
LAT012D08

> <Supplier>
Chembridge

> <Suplier_CAT#>
5759563

> <Name>
Novel

> <Sec_Name>
241_E02

> <Concentration_(mM)>
2.5

> <IC50_(µM)>
>100

> <Yeast_Active?>
-

> <Pubchem_CID>
1365306

$$$$
