
  -ISIS-  08130814242D

 24 26  0  0  0  0  0  0  0  0999 V2000
    3.2667   -1.5542    0.0000 C   0  0  0  0  0  0  0  0  0  0  0  0
    3.9167   -2.6792    0.0000 N   0  0  0  0  0  0  0  0  0  0  0  0
    3.9167   -1.9292    0.0000 N   0  0  0  0  0  0  0  0  0  0  0  0
    5.8667   -1.5542    0.0000 C   0  0  0  0  0  0  0  0  0  0  0  0
    3.2667   -0.8042    0.0000 O   0  0  0  0  0  0  0  0  0  0  0  0
    5.2167   -1.9292    0.0000 C   0  0  0  0  0  0  0  0  0  0  0  0
    1.9667   -1.5500    0.0000 N   0  0  0  0  0  0  0  0  0  0  0  0
    6.5167   -1.9292    0.0000 C   0  0  0  0  0  0  0  0  0  0  0  0
    2.6167   -1.9292    0.0000 C   0  0  0  0  0  0  0  0  0  0  0  0
    4.5667   -3.0542    0.0000 C   0  0  0  0  0  0  0  0  0  0  0  0
    6.5167   -2.6792    0.0000 C   0  0  0  0  0  0  0  0  0  0  0  0
    5.2167   -2.6792    0.0000 C   0  0  0  0  0  0  0  0  0  0  0  0
    1.3167   -1.9292    0.0000 C   0  0  0  0  0  0  0  0  0  0  0  0
    5.8667   -3.0542    0.0000 C   0  0  0  0  0  0  0  0  0  0  0  0
    0.0167   -2.6792    0.0000 C   0  0  0  0  0  0  0  0  0  0  0  0
    0.6667   -1.5500    0.0000 C   0  0  0  0  0  0  0  0  0  0  0  0
    1.3167   -2.6792    0.0000 C   0  0  0  0  0  0  0  0  0  0  0  0
    0.0167   -1.9292    0.0000 C   0  0  0  0  0  0  0  0  0  0  0  0
    0.6667   -3.0542    0.0000 C   0  0  0  0  0  0  0  0  0  0  0  0
    5.8667   -0.8042    0.0000 C   0  0  0  0  0  0  0  0  0  0  0  0
    7.1667   -1.5542    0.0000 C   0  0  0  0  0  0  0  0  0  0  0  0
   -0.6208   -3.0542    0.0000 C   0  0  0  0  0  0  0  0  0  0  0  0
    6.5167   -0.4292    0.0000 C   0  0  0  0  0  0  0  0  0  0  0  0
    7.1667   -0.8042    0.0000 C   0  0  0  0  0  0  0  0  0  0  0  0
  2  3  1  0  0  0  0
  3  1  1  0  0  0  0
  4  6  1  0  0  0  0
  5  1  2  0  0  0  0
  6 12  2  0  0  0  0
  7  9  1  0  0  0  0
  8 11  1  0  0  0  0
  9  1  1  0  0  0  0
 10  2  2  0  0  0  0
 11 14  2  0  0  0  0
 12 10  1  0  0  0  0
 13  7  1  0  0  0  0
 14 12  1  0  0  0  0
 15 19  2  0  0  0  0
 16 13  1  0  0  0  0
 17 13  2  0  0  0  0
 18 16  2  0  0  0  0
 19 17  1  0  0  0  0
 20  4  2  0  0  0  0
 21  8  2  0  0  0  0
 22 15  1  0  0  0  0
 23 20  1  0  0  0  0
 24 21  1  0  0  0  0
 15 18  1  0  0  0  0
  4  8  1  0  0  0  0
 23 24  2  0  0  0  0
M  END
> <#>
653

> <PLATE>
LAT009

> <ROW>
E

> <COL>
3

> <COORD>
E03

> <LATID>
LAT009E03

> <Supplier>
Chembridge

> <Suplier_CAT#>
5526644

> <Name>
Novel

> <Sec_Name>
150_A07

> <Concentration_(mM)>
2.5

> <IC50_(µM)>
100

> <Yeast_Active?>
-

> <Pubchem_CID>
689554

$$$$
