
  -ISIS-  08130814242D

 22 23  0  0  0  0  0  0  0  0999 V2000
    2.8917   -4.2167    0.0000 C   0  0  0  0  0  0  0  0  0  0  0  0
    3.6042   -4.6292    0.0000 C   0  0  0  0  0  0  0  0  0  0  0  0
    4.3167   -4.2167    0.0000 C   0  0  0  0  0  0  0  0  0  0  0  0
    7.1792   -4.2250    0.0000 C   0  0  0  0  0  0  0  0  0  0  0  0
    5.0417   -4.6292    0.0000 C   0  0  0  0  0  0  0  0  0  0  0  0
    2.8917   -3.3875    0.0000 C   0  0  0  0  0  0  0  0  0  0  0  0
    2.1792   -4.6250    0.0000 C   0  0  0  0  0  0  0  0  0  0  0  0
    7.1792   -3.4000    0.0000 C   0  0  0  0  0  0  0  0  0  0  0  0
    6.4667   -4.6375    0.0000 C   0  0  0  0  0  0  0  0  0  0  0  0
    3.6042   -5.4542    0.0000 O   0  0  0  0  0  0  0  0  0  0  0  0
    5.7542   -4.2167    0.0000 C   0  0  0  0  0  0  0  0  0  0  0  0
    2.1792   -2.9750    0.0000 C   0  0  0  0  0  0  0  0  0  0  0  0
    6.4542   -2.9875    0.0000 C   0  0  0  0  0  0  0  0  0  0  0  0
    1.4667   -4.2125    0.0000 C   0  0  0  0  0  0  0  0  0  0  0  0
    5.7417   -3.4000    0.0000 C   0  0  0  0  0  0  0  0  0  0  0  0
    1.4667   -3.3875    0.0000 C   0  0  0  0  0  0  0  0  0  0  0  0
    7.8917   -4.6375    0.0000 O   0  0  0  0  0  0  0  0  0  0  0  0
    3.6042   -2.9667    0.0000 O   0  0  0  0  0  0  0  0  0  0  0  0
    0.7542   -4.6250    0.0000 Cl  0  0  0  0  0  0  0  0  0  0  0  0
    7.8917   -2.9875    0.0000 O   0  0  0  0  0  0  0  0  0  0  0  0
    8.6042   -4.2250    0.0000 C   0  0  0  0  0  0  0  0  0  0  0  0
    7.8917   -2.1625    0.0000 C   0  0  0  0  0  0  0  0  0  0  0  0
  2  1  1  0  0  0  0
  3  2  1  0  0  0  0
  4  9  1  0  0  0  0
  5  3  2  0  0  0  0
  6  1  1  0  0  0  0
  7  1  2  0  0  0  0
  8 13  1  0  0  0  0
  9 11  2  0  0  0  0
 10  2  2  0  0  0  0
 11  5  1  0  0  0  0
 12  6  2  0  0  0  0
 13 15  2  0  0  0  0
 14  7  1  0  0  0  0
 15 11  1  0  0  0  0
 16 14  2  0  0  0  0
 17  4  1  0  0  0  0
 18  6  1  0  0  0  0
 19 14  1  0  0  0  0
 20  8  1  0  0  0  0
 21 17  1  0  0  0  0
 22 20  1  0  0  0  0
 12 16  1  0  0  0  0
  4  8  2  0  0  0  0
M  END
> <#>
1368

> <PLATE>
LAT018

> <ROW>
H

> <COL>
2

> <COORD>
H02

> <LATID>
LAT018H02

> <Supplier>
Chembridge

> <Suplier_CAT#>
7118976

> <Name>
Novel

> <Concentration_(mM)>
2.5

> <IC50_(µM)>
inactive

> <Yeast_Active?>
-

> <Pubchem_CID>
2780499

$$$$
