
  -ISIS-  08130814242D

 23 24  0  0  0  0  0  0  0  0999 V2000
    2.5667    3.7125    0.0000 C   0  0  0  0  0  0  0  0  0  0  0  0
    3.8542    4.4625    0.0000 C   0  0  0  0  0  0  0  0  0  0  0  0
    5.1417    3.7333    0.0000 C   0  0  0  0  0  0  0  0  0  0  0  0
    6.4292    4.4792    0.0000 C   0  0  0  0  0  0  0  0  0  0  0  0
    1.2875    4.4417    0.0000 C   0  0  0  0  0  0  0  0  0  0  0  0
    7.7167    3.7458    0.0000 C   0  0  0  0  0  0  0  0  0  0  0  0
    2.5625    2.2208    0.0000 C   0  0  0  0  0  0  0  0  0  0  0  0
   11.0917    1.7000    0.0000 C   0  0  3  0  0  0  0  0  0  0  0  0
   10.2667    2.2458    0.0000 C   0  0  0  0  0  0  0  0  0  0  0  0
    3.8417    5.9500    0.0000 O   0  0  0  0  0  0  0  0  0  0  0  0
    6.4167    5.9667    0.0000 O   0  0  0  0  0  0  0  0  0  0  0  0
    8.9917    4.4667    0.0000 C   0  0  0  0  0  0  0  0  0  0  0  0
    7.7042    2.2583    0.0000 C   0  0  0  0  0  0  0  0  0  0  0  0
    8.9792    1.5125    0.0000 C   0  0  0  0  0  0  0  0  0  0  0  0
   10.2667    3.7333    0.0000 C   0  0  0  0  0  0  0  0  0  0  0  0
    0.0042    3.7208    0.0000 C   0  0  0  0  0  0  0  0  0  0  0  0
    1.2750    1.4875    0.0000 C   0  0  0  0  0  0  0  0  0  0  0  0
    0.0000    2.2333    0.0000 C   0  0  0  0  0  0  0  0  0  0  0  0
    1.2625    0.0000    0.0000 Cl  0  0  0  0  0  0  0  0  0  0  0  0
    1.2792    5.9375    0.0000 O   0  0  0  0  0  0  0  0  0  0  0  0
   11.9375    1.2125    0.0000 C   0  0  0  0  0  0  0  0  0  0  0  0
   10.8292    0.7583    0.0000 C   0  0  0  0  0  0  0  0  0  0  0  0
   11.7792    2.3958    0.0000 C   0  0  0  0  0  0  0  0  0  0  0  0
  2  1  1  0  0  0  0
  3  2  1  0  0  0  0
  4  3  1  0  0  0  0
  5  1  2  0  0  0  0
  6  4  1  0  0  0  0
  7  1  1  0  0  0  0
  8  9  1  0  0  0  0
  9 14  2  0  0  0  0
 10  2  2  0  0  0  0
 11  4  2  0  0  0  0
 12  6  1  0  0  0  0
 13  6  2  0  0  0  0
 14 13  1  0  0  0  0
 15 12  2  0  0  0  0
 16  5  1  0  0  0  0
 17  7  2  0  0  0  0
 18 17  1  0  0  0  0
 19 17  1  0  0  0  0
 20  5  1  0  0  0  0
 21  8  1  0  0  0  0
 22  8  1  0  0  0  0
 23  8  1  0  0  0  0
 18 16  2  0  0  0  0
  9 15  1  0  0  0  0
M  END
> <#>
1239

> <PLATE>
LAT016

> <ROW>
G

> <COL>
6

> <COORD>
G06

> <LATID>
LAT016G06

> <Supplier>
Chembridge

> <Suplier_CAT#>
5989430

> <Name>
Novel

> <Concentration_(mM)>
2.5

> <IC50_(µM)>
inactive

> <Yeast_Active?>
-

> <Pubchem_CID>
776183

$$$$
