
  -ISIS-  08130814242D

 18 20  0  0  0  0  0  0  0  0999 V2000
   -1.7833    0.6500    0.0000 C   0  0  0  0  0  0  0  0  0  0  0  0
   -2.6208    1.0000    0.0000 N   0  0  0  0  0  0  0  0  0  0  0  0
   -1.8625   -0.2792    0.0000 S   0  0  0  0  0  0  0  0  0  0  0  0
   -3.2333    0.3125    0.0000 C   0  0  0  0  0  0  0  0  0  0  0  0
   -2.7625   -0.4792    0.0000 C   0  0  0  0  0  0  0  0  0  0  0  0
   -0.1958    0.6708    0.0000 N   0  0  0  0  0  0  0  0  0  0  0  0
   -0.9833    1.1208    0.0000 N   0  0  0  0  0  0  0  0  0  0  0  0
    0.6042    1.1458    0.0000 C   0  0  0  0  0  0  0  0  0  0  0  0
    1.4042   -0.2375    0.0000 N   0  0  0  0  0  0  0  0  0  0  0  0
    1.4042    0.6833    0.0000 C   0  0  0  0  0  0  0  0  0  0  0  0
   -4.1625    0.3000    0.0000 C   0  0  0  0  0  0  0  0  0  0  0  0
   -3.2208   -1.2875    0.0000 C   0  0  0  0  0  0  0  0  0  0  0  0
    2.1917   -0.6875    0.0000 C   0  0  0  0  0  0  0  0  0  0  0  0
    2.1917    1.1458    0.0000 C   0  0  0  0  0  0  0  0  0  0  0  0
    3.0000   -0.2375    0.0000 C   0  0  0  0  0  0  0  0  0  0  0  0
   -4.6208   -0.4875    0.0000 C   0  0  0  0  0  0  0  0  0  0  0  0
   -4.1583   -1.2875    0.0000 C   0  0  0  0  0  0  0  0  0  0  0  0
    3.0000    0.6708    0.0000 C   0  0  0  0  0  0  0  0  0  0  0  0
  2  1  2  0  0  0  0
  3  1  1  0  0  0  0
  4  2  1  0  0  0  0
  5  3  1  0  0  0  0
  6  7  1  0  0  0  0
  7  1  1  0  0  0  0
  8  6  2  0  0  0  0
  9 10  2  0  0  0  0
 10  8  1  0  0  0  0
 11  4  1  0  0  0  0
 12  5  1  0  0  0  0
 13  9  1  0  0  0  0
 14 10  1  0  0  0  0
 15 18  1  0  0  0  0
 16 11  2  0  0  0  0
 17 12  2  0  0  0  0
 18 14  2  0  0  0  0
  5  4  2  0  0  0  0
 16 17  1  0  0  0  0
 15 13  2  0  0  0  0
M  END
> <#>
2056

> <PLATE>
LAT026

> <ROW>
H

> <COL>
8

> <COORD>
H08

> <LATID>
LAT026H08

> <Supplier>
Chembridge

> <Suplier_CAT#>
5633522

> <Sec_Name>
193_C09

> <Concentration_(mM)>
2.5

> <IC50_(µM)>
25

> <Yeast_Active?>
+

> <Pubchem_CID>
2857031

$$$$
