
  -ISIS-  08130814242D

 19 20  0  0  0  0  0  0  0  0999 V2000
    3.6375    2.8125    0.0000 C   0  0  0  0  0  0  0  0  0  0  0  0
    4.8542    2.1208    0.0000 C   0  0  0  0  0  0  0  0  0  0  0  0
    2.4167    2.1000    0.0000 C   0  0  0  0  0  0  0  0  0  0  0  0
    6.0667    2.8333    0.0000 C   0  0  0  0  0  0  0  0  0  0  0  0
    7.2792    2.1333    0.0000 C   0  0  0  0  0  0  0  0  0  0  0  0
    1.2167    2.8000    0.0000 C   0  0  0  0  0  0  0  0  0  0  0  0
    3.6292    4.2125    0.0000 O   0  0  0  0  0  0  0  0  0  0  0  0
    6.0542    4.2292    0.0000 O   0  0  0  0  0  0  0  0  0  0  0  0
    8.4917    2.8208    0.0000 C   0  0  0  0  0  0  0  0  0  0  0  0
    7.2750    0.7333    0.0000 C   0  0  0  0  0  0  0  0  0  0  0  0
    9.6917    0.7208    0.0000 C   0  0  0  0  0  0  0  0  0  0  0  0
    8.4792    0.0250    0.0000 C   0  0  0  0  0  0  0  0  0  0  0  0
    9.6917    2.1208    0.0000 C   0  0  0  0  0  0  0  0  0  0  0  0
   10.9042    0.0208    0.0000 Br  0  0  0  0  0  0  0  0  0  0  0  0
    1.2042    4.2000    0.0000 O   0  0  0  0  0  0  0  0  0  0  0  0
    2.4167    0.6958    0.0000 C   0  0  0  0  0  0  0  0  0  0  0  0
    0.0042    2.1083    0.0000 C   0  0  0  0  0  0  0  0  0  0  0  0
    1.2042    0.0000    0.0000 C   0  0  0  0  0  0  0  0  0  0  0  0
    0.0000    0.7083    0.0000 C   0  0  0  0  0  0  0  0  0  0  0  0
  2  1  1  0  0  0  0
  3  1  1  0  0  0  0
  4  2  1  0  0  0  0
  5  4  1  0  0  0  0
  6  3  2  0  0  0  0
  7  1  2  0  0  0  0
  8  4  2  0  0  0  0
  9  5  1  0  0  0  0
 10  5  2  0  0  0  0
 11 12  2  0  0  0  0
 12 10  1  0  0  0  0
 13  9  2  0  0  0  0
 14 11  1  0  0  0  0
 15  6  1  0  0  0  0
 16  3  1  0  0  0  0
 17  6  1  0  0  0  0
 18 16  2  0  0  0  0
 19 18  1  0  0  0  0
 19 17  2  0  0  0  0
 11 13  1  0  0  0  0
M  END
> <#>
1220

> <PLATE>
LAT016

> <ROW>
D

> <COL>
4

> <COORD>
D04

> <LATID>
LAT016D04

> <Supplier>
Chembridge

> <Suplier_CAT#>
5973684

> <Name>
Novel

> <Concentration_(mM)>
2.5

> <IC50_(µM)>
inactive

> <Yeast_Active?>
-

> <Pubchem_CID>
2879231

$$$$
