
  -ISIS-  08130814242D

 14 14  0  0  0  0  0  0  0  0999 V2000
    5.4292   -2.8042    0.0000 C   0  0  0  0  0  0  0  0  0  0  0  0
    4.6042   -2.8125    0.0000 C   0  0  0  0  0  0  0  0  0  0  0  0
    5.8417   -3.5167    0.0000 C   0  0  0  0  0  0  0  0  0  0  0  0
    7.9000   -4.2292    0.0000 C   0  0  0  0  0  0  0  0  0  0  0  0
    6.6667   -3.5167    0.0000 O   0  0  0  0  0  0  0  0  0  0  0  0
    8.3042   -3.5167    0.0000 O   0  0  0  0  0  0  0  0  0  0  0  0
    5.4292   -4.2292    0.0000 C   0  0  0  0  0  0  0  0  0  0  0  0
    4.2000   -3.5250    0.0000 C   0  0  0  0  0  0  0  0  0  0  0  0
    7.0792   -4.2292    0.0000 C   0  0  0  0  0  0  0  0  0  0  0  0
    5.8417   -2.0917    0.0000 Cl  0  0  0  0  0  0  0  0  0  0  0  0
    4.6042   -4.2292    0.0000 C   0  0  0  0  0  0  0  0  0  0  0  0
    8.3125   -4.9417    0.0000 O   0  0  0  0  0  0  0  0  0  0  0  0
    3.3750   -3.5250    0.0000 Cl  0  0  0  0  0  0  0  0  0  0  0  0
    7.9000   -5.6542    0.0000 C   0  0  0  0  0  0  0  0  0  0  0  0
  2  1  1  0  0  0  0
  3  1  2  0  0  0  0
  4  9  1  0  0  0  0
  5  3  1  0  0  0  0
  6  4  2  0  0  0  0
  7  3  1  0  0  0  0
  8  2  2  0  0  0  0
  9  5  1  0  0  0  0
 10  1  1  0  0  0  0
 11  7  2  0  0  0  0
 12  4  1  0  0  0  0
 13  8  1  0  0  0  0
 14 12  1  0  0  0  0
  8 11  1  0  0  0  0
M  END
> <#>
186

> <PLATE>
LAT003

> <ROW>
B

> <COL>
5

> <COORD>
B05

> <LATID>
LAT003B05

> <Supplier>
Microsource

> <Suplier_CAT#>
00330044

> <Name>
2,4-Dichlorophenoxyacetic Acid, Methyl Ester

> <Concentration_(mM)>
2.5

> <IC50_(µM)>
0.085

> <Yeast_Active?>
-

> <Pubchem_CID>
1488

> <Description>
Herbicide

> <Comment>
Auxin agonist

$$$$
