
  -ISIS-  08130814242D

 21 23  0  0  0  0  0  0  0  0999 V2000
    5.4500    2.2708    0.0000 C   0  0  0  0  0  0  0  0  0  0  0  0
    5.8250    1.6208    0.0000 N   0  0  3  0  0  0  0  0  0  0  0  0
    5.3167    1.0583    0.0000 N   0  0  0  0  0  0  0  0  0  0  0  0
    4.6375    1.3625    0.0000 C   0  0  0  0  0  0  0  0  0  0  0  0
    4.7167    2.1083    0.0000 C   0  0  0  0  0  0  0  0  0  0  0  0
    5.8250    2.9125    0.0000 N   0  0  0  0  0  0  0  0  0  0  0  0
    6.5750    1.6208    0.0000 C   0  0  0  0  0  0  0  0  0  0  0  0
    6.9500    2.2708    0.0000 C   0  0  0  0  0  0  0  0  0  0  0  0
    3.9875    0.9875    0.0000 C   0  0  0  0  0  0  0  0  0  0  0  0
    6.5750    2.9125    0.0000 C   0  0  0  0  0  0  0  0  0  0  0  0
    3.3375    1.3625    0.0000 N   0  0  0  0  0  0  0  0  0  0  0  0
    2.0375    2.1125    0.0000 N   0  0  0  0  0  0  0  0  0  0  0  0
    3.9875    0.2375    0.0000 O   0  0  0  0  0  0  0  0  0  0  0  0
    2.6875    0.9875    0.0000 C   0  0  0  0  0  0  0  0  0  0  0  0
    2.0375    1.3625    0.0000 C   0  0  0  0  0  0  0  0  0  0  0  0
    6.9500    0.9708    0.0000 C   0  0  0  0  0  0  0  0  0  0  0  0
    6.9500    3.5625    0.0000 C   0  0  0  0  0  0  0  0  0  0  0  0
    1.3875    2.4875    0.0000 C   0  0  0  0  0  0  0  0  0  0  0  0
    1.3875    0.9875    0.0000 C   0  0  0  0  0  0  0  0  0  0  0  0
    0.7417    2.1125    0.0000 C   0  0  0  0  0  0  0  0  0  0  0  0
    0.7417    1.3625    0.0000 C   0  0  0  0  0  0  0  0  0  0  0  0
  2  1  1  0  0  0  0
  3  2  1  0  0  0  0
  4  5  1  0  0  0  0
  5  1  2  0  0  0  0
  6  1  1  0  0  0  0
  7  2  1  0  0  0  0
  8 10  1  0  0  0  0
  9  4  1  0  0  0  0
 10  6  2  0  0  0  0
 11  9  1  0  0  0  0
 12 15  2  0  0  0  0
 13  9  2  0  0  0  0
 14 11  1  0  0  0  0
 15 14  1  0  0  0  0
 16  7  1  0  0  0  0
 17 10  1  0  0  0  0
 18 12  1  0  0  0  0
 19 15  1  0  0  0  0
 20 21  1  0  0  0  0
 21 19  2  0  0  0  0
  3  4  2  0  0  0  0
  7  8  2  0  0  0  0
 20 18  2  0  0  0  0
M  END
> <#>
1496

> <PLATE>
LAT019

> <ROW>
H

> <COL>
8

> <COORD>
H08

> <LATID>
LAT019H08

> <Supplier>
Chembridge

> <Suplier_CAT#>
7985973

> <Name>
Novel

> <Concentration_(mM)>
2.5

> <IC50_(µM)>
inactive

> <Yeast_Active?>
-

> <Pubchem_CID>
2982976

$$$$
