
  -ISIS-  08130814242D

 17 18  0  0  0  0  0  0  0  0999 V2000
    3.4667   -1.8000    0.0000 C   0  0  0  0  0  0  0  0  0  0  0  0
    4.1875   -3.0375    0.0000 C   0  0  0  0  0  0  0  0  0  0  0  0
    4.1875   -1.3875    0.0000 O   0  0  0  0  0  0  0  0  0  0  0  0
    4.9000   -1.8000    0.0000 C   0  0  0  0  0  0  0  0  0  0  0  0
    3.4667   -2.6167    0.0000 C   0  0  0  0  0  0  0  0  0  0  0  0
    4.9000   -2.6167    0.0000 C   0  0  0  0  0  0  0  0  0  0  0  0
    2.7542   -1.3875    0.0000 C   0  0  0  0  0  0  0  0  0  0  0  0
    2.7542   -3.0375    0.0000 C   0  0  0  0  0  0  0  0  0  0  0  0
    5.6167   -1.3875    0.0000 O   0  0  0  0  0  0  0  0  0  0  0  0
    2.0500   -1.8000    0.0000 C   0  0  0  0  0  0  0  0  0  0  0  0
    2.0500   -2.6167    0.0000 C   0  0  0  0  0  0  0  0  0  0  0  0
    4.1875   -3.8542    0.0000 C   0  0  0  0  0  0  0  0  0  0  0  0
    1.3167   -1.3875    0.0000 O   0  0  0  0  0  0  0  0  0  0  0  0
    0.6042   -1.8000    0.0000 C   0  0  0  0  0  0  0  0  0  0  0  0
    4.9000   -4.2667    0.0000 C   0  0  0  0  0  0  0  0  0  0  0  0
   -0.1000   -1.4000    0.0000 C   0  0  0  0  0  0  0  0  0  0  0  0
    4.9000   -5.1000    0.0000 C   0  0  0  0  0  0  0  0  0  0  0  0
  2  5  1  0  0  0  0
  3  1  1  0  0  0  0
  4  3  1  0  0  0  0
  5  1  1  0  0  0  0
  6  2  2  0  0  0  0
  7  1  2  0  0  0  0
  8  5  2  0  0  0  0
  9  4  2  0  0  0  0
 10  7  1  0  0  0  0
 11 10  2  0  0  0  0
 12  2  1  0  0  0  0
 13 10  1  0  0  0  0
 14 13  1  0  0  0  0
 15 12  1  0  0  0  0
 16 14  1  0  0  0  0
 17 15  1  0  0  0  0
 11  8  1  0  0  0  0
  6  4  1  0  0  0  0
M  END
> <#>
1858

> <PLATE>
LAT024

> <ROW>
B

> <COL>
4

> <COORD>
B04

> <LATID>
LAT024B04

> <Supplier>
Chembridge

> <Suplier_CAT#>
5754756

> <Name>
Novel

> <Sec_Name>
239_F10

> <Concentration_(mM)>
2.5

> <IC50_(µM)>
4

> <Yeast_Active?>
-

> <Pubchem_CID>
763611

$$$$
