
  -ISIS-  08130814242D

 19 20  0  0  0  0  0  0  0  0999 V2000
   -1.4625    1.9000    0.0000 C   0  0  0  0  0  0  0  0  0  0  0  0
    0.1792    1.9000    0.0000 C   0  0  0  0  0  0  0  0  0  0  0  0
   -0.6458    1.4333    0.0000 C   0  0  0  0  0  0  0  0  0  0  0  0
   -2.2958    1.4333    0.0000 C   0  0  0  0  0  0  0  0  0  0  0  0
    1.0000    1.4333    0.0000 C   0  0  0  0  0  0  0  0  0  0  0  0
   -3.1000    1.9000    0.0000 C   0  0  0  0  0  0  0  0  0  0  0  0
   -1.4625    2.8333    0.0000 O   0  0  0  0  0  0  0  0  0  0  0  0
    0.1792    2.8333    0.0000 O   0  0  0  0  0  0  0  0  0  0  0  0
    1.8042    1.9000    0.0000 C   0  0  0  0  0  0  0  0  0  0  0  0
   -3.1000    2.8458    0.0000 O   0  0  0  0  0  0  0  0  0  0  0  0
   -2.2958    0.4958    0.0000 C   0  0  0  0  0  0  0  0  0  0  0  0
    0.9875    0.4833    0.0000 C   0  0  0  0  0  0  0  0  0  0  0  0
   -3.9125    1.4333    0.0000 C   0  0  0  0  0  0  0  0  0  0  0  0
    1.8042    2.8333    0.0000 C   0  0  0  0  0  0  0  0  0  0  0  0
    2.6292    1.4333    0.0000 C   0  0  0  0  0  0  0  0  0  0  0  0
   -3.1000    0.0208    0.0000 C   0  0  0  0  0  0  0  0  0  0  0  0
    1.8042    0.0125    0.0000 C   0  0  0  0  0  0  0  0  0  0  0  0
   -3.9125    0.4958    0.0000 C   0  0  0  0  0  0  0  0  0  0  0  0
    2.6292    0.4833    0.0000 C   0  0  0  0  0  0  0  0  0  0  0  0
  2  3  1  0  0  0  0
  3  1  1  0  0  0  0
  4  1  1  0  0  0  0
  5  2  1  0  0  0  0
  6  4  1  0  0  0  0
  7  1  2  0  0  0  0
  8  2  2  0  0  0  0
  9  5  2  0  0  0  0
 10  6  1  0  0  0  0
 11  4  2  0  0  0  0
 12  5  1  0  0  0  0
 13  6  2  0  0  0  0
 14  9  1  0  0  0  0
 15  9  1  0  0  0  0
 16 11  1  0  0  0  0
 17 12  2  0  0  0  0
 18 16  2  0  0  0  0
 19 17  1  0  0  0  0
 18 13  1  0  0  0  0
 19 15  2  0  0  0  0
M  END
> <#>
1145

> <PLATE>
LAT015

> <ROW>
A

> <COL>
5

> <COORD>
A05

> <LATID>
LAT015A05

> <Supplier>
Chembridge

> <Suplier_CAT#>
5468354

> <Name>
Novel

> <Sec_Name>
133_H02

> <Concentration_(mM)>
2.5

> <IC50_(µM)>
97

> <Yeast_Active?>
+

> <Pubchem_CID>
867163

$$$$
