
  -ISIS-  08130814242D

 11  9  0  0  0  0  0  0  0  0999 V2000
    4.8625   -1.6167    0.0000 Na  0  3  0  0  0  0  0  0  0  0  0  0
    2.7375   -2.0417    0.0000 C   0  0  0  0  0  0  0  0  0  0  0  0
    3.4500   -1.6292    0.0000 O   0  5  0  0  0  0  0  0  0  0  0  0
    2.7375   -2.8667    0.0000 O   0  0  0  0  0  0  0  0  0  0  0  0
    2.0250   -1.6375    0.0000 C   0  0  3  0  0  0  0  0  0  0  0  0
    2.0167   -0.8125    0.0000 C   0  0  0  0  0  0  0  0  0  0  0  0
    1.3125   -2.0500    0.0000 C   0  0  0  0  0  0  0  0  0  0  0  0
    1.3042   -0.4000    0.0000 C   0  0  0  0  0  0  0  0  0  0  0  0
    0.6000   -1.6417    0.0000 C   0  0  0  0  0  0  0  0  0  0  0  0
    1.3042    0.4250    0.0000 C   0  0  0  0  0  0  0  0  0  0  0  0
   -0.1125   -2.0542    0.0000 C   0  0  0  0  0  0  0  0  0  0  0  0
  3  2  1  0  0  0  0
  4  2  2  0  0  0  0
  5  2  1  0  0  0  0
  6  5  1  0  0  0  0
  7  5  1  0  0  0  0
  8  6  1  0  0  0  0
  9  7  1  0  0  0  0
 10  8  1  0  0  0  0
 11  9  1  0  0  0  0
M  CHG  2   1   1   3  -1
M  END
> <#>
67

> <PLATE>
LAT001

> <ROW>
C

> <COL>
10

> <COORD>
C10

> <LATID>
LAT001C10

> <Supplier>
Microsource

> <Suplier_CAT#>
01500606

> <Name>
Valproate Sodium

> <Concentration_(mM)>
2.5

> <IC50_(µM)>
47

> <Yeast_Active?>
-

> <Pubchem_CID>
14047

> <Description>
Anticonvulsant

$$$$
