
  -ISIS-  08130814242D

 21 23  0  0  0  0  0  0  0  0999 V2000
    5.1167   -4.1292    0.0000 C   0  0  0  0  0  0  0  0  0  0  0  0
    5.3292   -3.4750    0.0000 C   0  0  0  0  0  0  0  0  0  0  0  0
    3.9875   -3.7667    0.0000 N   0  0  0  0  0  0  0  0  0  0  0  0
    4.4417   -4.2792    0.0000 N   0  0  0  0  0  0  0  0  0  0  0  0
    4.1917   -3.1125    0.0000 C   0  0  0  0  0  0  0  0  0  0  0  0
    5.5875   -4.6417    0.0000 C   0  0  0  0  0  0  0  0  0  0  0  0
    8.3167   -5.2917    0.0000 C   0  0  0  0  0  0  0  0  0  0  0  0
    3.8792   -2.5000    0.0000 C   0  0  3  0  0  0  0  0  0  0  0  0
    3.9042   -1.8125    0.0000 C   0  0  0  0  0  0  0  0  0  0  0  0
    3.3000   -2.1292    0.0000 C   0  0  0  0  0  0  0  0  0  0  0  0
    7.0417   -5.0625    0.0000 N   0  0  0  0  0  0  0  0  0  0  0  0
    6.4000   -4.5250    0.0000 N   0  0  0  0  0  0  0  0  0  0  0  0
    9.0167   -5.0375    0.0000 C   0  0  0  0  0  0  0  0  0  0  0  0
    8.1875   -6.0292    0.0000 C   0  0  0  0  0  0  0  0  0  0  0  0
    7.7417   -4.8042    0.0000 C   0  0  0  0  0  0  0  0  0  0  0  0
    5.3750   -5.2917    0.0000 O   0  0  0  0  0  0  0  0  0  0  0  0
    9.1500   -4.3000    0.0000 Cl  0  0  0  0  0  0  0  0  0  0  0  0
    7.4792   -6.2875    0.0000 Cl  0  0  0  0  0  0  0  0  0  0  0  0
    9.4667   -6.2542    0.0000 C   0  0  0  0  0  0  0  0  0  0  0  0
    8.7625   -6.5167    0.0000 C   0  0  0  0  0  0  0  0  0  0  0  0
    9.5917   -5.5167    0.0000 C   0  0  0  0  0  0  0  0  0  0  0  0
  2  1  2  0  0  0  0
  3  4  1  0  0  0  0
  4  1  1  0  0  0  0
  5  2  1  0  0  0  0
  6  1  1  0  0  0  0
  7 15  1  0  0  0  0
  8  5  1  0  0  0  0
  9  8  1  0  0  0  0
 10  8  1  0  0  0  0
 11 12  1  0  0  0  0
 12  6  1  0  0  0  0
 13  7  2  0  0  0  0
 14  7  1  0  0  0  0
 15 11  2  0  0  0  0
 16  6  2  0  0  0  0
 17 13  1  0  0  0  0
 18 14  1  0  0  0  0
 19 20  1  0  0  0  0
 20 14  2  0  0  0  0
 21 13  1  0  0  0  0
  3  5  2  0  0  0  0
  9 10  1  0  0  0  0
 19 21  2  0  0  0  0
M  END
> <#>
1864

> <PLATE>
LAT024

> <ROW>
H

> <COL>
4

> <COORD>
H04

> <LATID>
LAT024H04

> <Supplier>
Chembridge

> <Suplier_CAT#>
5784244

> <Name>
Novel

> <Sec_Name>
247_B05

> <Concentration_(mM)>
2.5

> <IC50_(µM)>
21

> <Yeast_Active?>
-

> <Pubchem_CID>
NULL

$$$$
