
  -ISIS-  08130814242D

 27 30  0  0  0  0  0  0  0  0999 V2000
    4.6708   -3.7292    0.0000 C   0  0  0  0  0  0  0  0  0  0  0  0
    5.3875   -4.1500    0.0000 C   0  0  2  0  0  0  0  0  0  0  0  0
    6.1063   -3.7420    0.0000 N   0  0  3  0  0  0  0  0  0  0  0  0
    6.1147   -2.9116    0.0000 C   0  0  0  0  0  0  0  0  0  0  0  0
    5.3980   -2.4908    0.0000 C   0  0  1  0  0  0  0  0  0  0  0  0
    4.6730   -2.9004    0.0000 C   0  0  0  0  0  0  0  0  0  0  0  0
    3.9583   -4.1500    0.0000 C   0  0  0  0  0  0  0  0  0  0  0  0
    3.9583   -4.9792    0.0000 C   0  0  0  0  0  0  0  0  0  0  0  0
    4.6724   -5.3915    0.0000 C   0  0  0  0  0  0  0  0  0  0  0  0
    5.3911   -4.9792    0.0000 C   0  0  0  0  0  0  0  0  0  0  0  0
    2.5319   -4.1541    0.0000 C   0  0  0  0  0  0  0  0  0  0  0  0
    2.5307   -4.9815    0.0000 C   0  0  0  0  0  0  0  0  0  0  0  0
    3.2456   -5.3944    0.0000 C   0  0  0  0  0  0  0  0  0  0  0  0
    3.2438   -3.7414    0.0000 C   0  0  0  0  0  0  0  0  0  0  0  0
    3.2375   -6.2167    0.0000 N   0  0  0  0  0  0  0  0  0  0  0  0
    4.6667   -6.2125    0.0000 C   0  0  0  0  0  0  0  0  0  0  0  0
    6.8167   -4.1542    0.0000 C   0  0  0  0  0  0  0  0  0  0  0  0
    6.1083   -2.0708    0.0000 N   0  0  0  0  0  0  0  0  0  0  0  0
    4.6792   -2.0750    0.0000 H   0  0  0  0  0  0  0  0  0  0  0  0
    6.8208   -2.4833    0.0000 C   0  0  0  0  0  0  0  0  0  0  0  0
    6.8167   -3.3083    0.0000 O   0  0  0  0  0  0  0  0  0  0  0  0
    6.1000   -4.5625    0.0000 H   0  0  0  0  0  0  0  0  0  0  0  0
    7.5333   -2.0667    0.0000 N   0  0  3  0  0  0  0  0  0  0  0  0
    7.5292   -1.2417    0.0000 C   0  0  0  0  0  0  0  0  0  0  0  0
    8.2458   -2.4792    0.0000 C   0  0  0  0  0  0  0  0  0  0  0  0
    8.2417   -0.8250    0.0000 C   0  0  0  0  0  0  0  0  0  0  0  0
    8.9583   -2.0625    0.0000 C   0  0  0  0  0  0  0  0  0  0  0  0
 13  8  2  0  0  0  0
  7  8  1  0  0  0  0
  7 14  2  0  0  0  0
 14 11  1  0  0  0  0
 13 15  1  0  0  0  0
  1  2  1  0  0  0  0
  9 16  2  0  0  0  0
 15 16  1  0  0  0  0
  1  6  2  0  0  0  0
  3 17  1  0  0  0  0
  2  3  1  0  0  0  0
  5 18  1  1  0  0  0
  7  1  1  0  0  0  0
  5 19  1  6  0  0  0
  8  9  1  0  0  0  0
 18 20  1  0  0  0  0
  9 10  1  0  0  0  0
 20 21  2  0  0  0  0
 10  2  1  0  0  0  0
  2 22  1  1  0  0  0
  3  4  1  0  0  0  0
 20 23  1  0  0  0  0
  4  5  1  0  0  0  0
 23 24  1  0  0  0  0
 11 12  2  0  0  0  0
 23 25  1  0  0  0  0
  5  6  1  0  0  0  0
 24 26  1  0  0  0  0
 12 13  1  0  0  0  0
 25 27  1  0  0  0  0
M  END
> <#>
247

> <PLATE>
LAT004

> <ROW>
G

> <COL>
2

> <COORD>
G02

> <LATID>
LAT004G02

> <Supplier>
Sigma

> <Suplier_CAT#>
L-122

> <Name>
S-(-)-Lisuride

> <Concentration_(mM)>
2.5

> <IC50_(µM)>
95

> <Yeast_Active?>
-

> <Pubchem_CID>
28864

> <Description>
D2 Dopamine receptor agonist; alpha- and beta-adrenoceptor antagonist; D1 dopamine receptor antagonist

$$$$
