
  -ISIS-  08130814242D

 29 31  0  0  0  0  0  0  0  0999 V2000
    0.6167    0.6958    0.0000 C   0  0  0  0  0  0  0  0  0  0  0  0
   -0.5333    1.3500    0.0000 C   0  0  0  0  0  0  0  0  0  0  0  0
    5.2042    0.6833    0.0000 C   0  0  0  0  0  0  0  0  0  0  0  0
    1.7542    1.3500    0.0000 C   0  0  0  0  0  0  0  0  0  0  0  0
    8.6875   -1.2875    0.0000 C   0  0  0  0  0  0  0  0  0  0  0  0
    5.2167   -0.6375    0.0000 C   0  0  0  0  0  0  0  0  0  0  0  0
    6.3542   -1.3000    0.0000 O   0  0  0  0  0  0  0  0  0  0  0  0
   -1.6625    0.6500    0.0000 C   0  0  0  0  0  0  0  0  0  0  0  0
    7.5042   -0.6375    0.0000 C   0  0  0  0  0  0  0  0  0  0  0  0
    4.0500    1.3500    0.0000 C   0  0  0  0  0  0  0  0  0  0  0  0
    9.8292   -0.6292    0.0000 C   0  0  0  0  0  0  0  0  0  0  0  0
   -0.5708    2.6708    0.0000 O   0  0  0  0  0  0  0  0  0  0  0  0
    2.9042    0.6958    0.0000 C   0  0  0  0  0  0  0  0  0  0  0  0
    4.0542   -1.3042    0.0000 C   0  0  0  0  0  0  0  0  0  0  0  0
   -2.7958    1.3125    0.0000 C   0  0  0  0  0  0  0  0  0  0  0  0
   -1.6625   -0.7042    0.0000 C   0  0  0  0  0  0  0  0  0  0  0  0
   -3.9458   -0.7042    0.0000 C   0  0  0  0  0  0  0  0  0  0  0  0
    9.8375    0.7125    0.0000 Cl  0  0  0  0  0  0  0  0  0  0  0  0
    2.9167   -0.6542    0.0000 C   0  0  0  0  0  0  0  0  0  0  0  0
   -3.9458    0.6125    0.0000 C   0  0  0  0  0  0  0  0  0  0  0  0
   -2.7500   -1.3292    0.0000 C   0  0  0  0  0  0  0  0  0  0  0  0
    6.3542    1.3500    0.0000 O   0  0  0  0  0  0  0  0  0  0  0  0
   -5.0708   -1.3667    0.0000 O   0  0  0  0  0  0  0  0  0  0  0  0
    8.6667   -2.6042    0.0000 C   0  0  0  0  0  0  0  0  0  0  0  0
   10.9667   -1.2792    0.0000 C   0  0  0  0  0  0  0  0  0  0  0  0
    6.3667    2.6625    0.0000 C   0  0  0  0  0  0  0  0  0  0  0  0
    7.5042    3.3208    0.0000 C   0  0  0  0  0  0  0  0  0  0  0  0
    9.8375   -3.2667    0.0000 C   0  0  0  0  0  0  0  0  0  0  0  0
   10.9792   -2.6042    0.0000 C   0  0  0  0  0  0  0  0  0  0  0  0
  2  1  1  0  0  0  0
  3 10  2  0  0  0  0
  4  1  2  0  0  0  0
  5  9  1  0  0  0  0
  6 14  2  0  0  0  0
  7  6  1  0  0  0  0
  8  2  1  0  0  0  0
  9  7  1  0  0  0  0
 10 13  1  0  0  0  0
 11  5  2  0  0  0  0
 12  2  2  0  0  0  0
 13  4  1  0  0  0  0
 14 19  1  0  0  0  0
 15  8  1  0  0  0  0
 16  8  2  0  0  0  0
 17 21  2  0  0  0  0
 18 11  1  0  0  0  0
 19 13  2  0  0  0  0
 20 15  2  0  0  0  0
 21 16  1  0  0  0  0
 22  3  1  0  0  0  0
 23 17  1  0  0  0  0
 24  5  1  0  0  0  0
 25 11  1  0  0  0  0
 26 22  1  0  0  0  0
 27 26  1  0  0  0  0
 28 24  2  0  0  0  0
 29 28  1  0  0  0  0
 17 20  1  0  0  0  0
  3  6  1  0  0  0  0
 29 25  2  0  0  0  0
M  END
> <#>
1244

> <PLATE>
LAT016

> <ROW>
D

> <COL>
7

> <COORD>
D07

> <LATID>
LAT016D07

> <Supplier>
Chembridge

> <Suplier_CAT#>
6148490

> <Name>
Novel

> <Concentration_(mM)>
2.5

> <IC50_(µM)>
inactive

> <Yeast_Active?>
-

> <Pubchem_CID>
2888197

$$$$
