
  -ISIS-  08130814242D

 19 21  0  0  0  0  0  0  0  0999 V2000
    0.5125   -1.7292    0.0000 C   0  0  0  0  0  0  0  0  0  0  0  0
    0.5167   -2.5625    0.0000 C   0  0  0  0  0  0  0  0  0  0  0  0
   -2.3458   -3.3917    0.0000 C   0  0  0  0  0  0  0  0  0  0  0  0
    1.3042   -2.8167    0.0000 O   0  0  0  0  0  0  0  0  0  0  0  0
    1.3000   -1.4667    0.0000 C   0  0  0  0  0  0  0  0  0  0  0  0
   -0.2083   -2.9750    0.0000 C   0  0  0  0  0  0  0  0  0  0  0  0
   -1.6333   -2.9792    0.0000 O   0  0  0  0  0  0  0  0  0  0  0  0
   -0.2083   -1.3167    0.0000 C   0  0  0  0  0  0  0  0  0  0  0  0
   -0.9208   -2.5625    0.0000 C   0  0  0  0  0  0  0  0  0  0  0  0
    1.7917   -2.1417    0.0000 C   0  0  0  0  0  0  0  0  0  0  0  0
   -2.3458   -4.2167    0.0000 O   0  0  0  0  0  0  0  0  0  0  0  0
   -3.0625   -2.9792    0.0000 C   0  0  0  0  0  0  0  0  0  0  0  0
    1.5500   -0.6792    0.0000 O   0  0  0  0  0  0  0  0  0  0  0  0
   -0.9208   -1.7375    0.0000 C   0  0  0  0  0  0  0  0  0  0  0  0
   -3.0583   -2.1542    0.0000 C   0  0  0  0  0  0  0  0  0  0  0  0
   -3.7708   -3.3917    0.0000 C   0  0  0  0  0  0  0  0  0  0  0  0
   -4.4833   -2.9792    0.0000 C   0  0  0  0  0  0  0  0  0  0  0  0
   -3.7708   -1.7417    0.0000 C   0  0  0  0  0  0  0  0  0  0  0  0
   -4.4833   -2.1542    0.0000 C   0  0  0  0  0  0  0  0  0  0  0  0
  2  1  1  0  0  0  0
  3  7  1  0  0  0  0
  4  2  1  0  0  0  0
  5  1  1  0  0  0  0
  6  2  2  0  0  0  0
  7  9  1  0  0  0  0
  8  1  2  0  0  0  0
  9 14  2  0  0  0  0
 10  5  1  0  0  0  0
 11  3  2  0  0  0  0
 12  3  1  0  0  0  0
 13  5  2  0  0  0  0
 14  8  1  0  0  0  0
 15 12  2  0  0  0  0
 16 12  1  0  0  0  0
 17 16  2  0  0  0  0
 18 15  1  0  0  0  0
 19 17  1  0  0  0  0
  4 10  1  0  0  0  0
  6  9  1  0  0  0  0
 18 19  2  0  0  0  0
M  END
> <#>
1353

> <PLATE>
LAT017

> <ROW>
A

> <COL>
11

> <COORD>
A11

> <LATID>
LAT017A11

> <Supplier>
Chembridge

> <Suplier_CAT#>
7607151

> <Name>
Novel

> <Concentration_(mM)>
2.5

> <IC50_(µM)>
inactive

> <Yeast_Active?>
-

> <Pubchem_CID>
732046

$$$$
