
  -ISIS-  08130814242D

 24 26  0  0  0  0  0  0  0  0999 V2000
    9.5667    0.8458    0.0000 C   0  0  0  0  0  0  0  0  0  0  0  0
   10.2167    1.2208    0.0000 N   0  0  0  0  0  0  0  0  0  0  0  0
    6.3250    1.9708    0.0000 C   0  0  0  0  0  0  0  0  0  0  0  0
   12.1667    0.8458    0.0000 N   0  0  0  0  0  0  0  0  0  0  0  0
    9.5667    0.0958    0.0000 O   0  0  0  0  0  0  0  0  0  0  0  0
    5.6750    2.3458    0.0000 C   0  0  0  0  0  0  0  0  0  0  0  0
    6.3250    1.2208    0.0000 C   0  0  0  0  0  0  0  0  0  0  0  0
    6.9750    2.3458    0.0000 C   0  0  0  0  0  0  0  0  0  0  0  0
    8.2667    0.8458    0.0000 O   0  0  0  0  0  0  0  0  0  0  0  0
    8.9167    1.2208    0.0000 C   0  0  0  0  0  0  0  0  0  0  0  0
   11.5167    1.2208    0.0000 C   0  0  0  0  0  0  0  0  0  0  0  0
    7.6167    1.2208    0.0000 C   0  0  0  0  0  0  0  0  0  0  0  0
   10.8667    0.8458    0.0000 C   0  0  0  0  0  0  0  0  0  0  0  0
    6.9750    0.8458    0.0000 C   0  0  0  0  0  0  0  0  0  0  0  0
    7.6167    1.9708    0.0000 C   0  0  0  0  0  0  0  0  0  0  0  0
   12.8167    1.2208    0.0000 C   0  0  0  0  0  0  0  0  0  0  0  0
    5.6750    3.0958    0.0000 C   0  0  0  0  0  0  0  0  0  0  0  0
    5.0250    1.9708    0.0000 C   0  0  0  0  0  0  0  0  0  0  0  0
   11.5167    1.9708    0.0000 C   0  0  0  0  0  0  0  0  0  0  0  0
   12.8167    1.9708    0.0000 C   0  0  0  0  0  0  0  0  0  0  0  0
    4.3750    2.3458    0.0000 C   0  0  0  0  0  0  0  0  0  0  0  0
    5.0250    3.4708    0.0000 C   0  0  0  0  0  0  0  0  0  0  0  0
   12.1667    2.3458    0.0000 C   0  0  0  0  0  0  0  0  0  0  0  0
    4.3750    3.0958    0.0000 C   0  0  0  0  0  0  0  0  0  0  0  0
  2  1  1  0  0  0  0
  3  8  1  0  0  0  0
  4 11  2  0  0  0  0
  5  1  2  0  0  0  0
  6  3  1  0  0  0  0
  7 14  1  0  0  0  0
  8 15  2  0  0  0  0
  9 10  1  0  0  0  0
 10  1  1  0  0  0  0
 11 13  1  0  0  0  0
 12  9  1  0  0  0  0
 13  2  1  0  0  0  0
 14 12  2  0  0  0  0
 15 12  1  0  0  0  0
 16  4  1  0  0  0  0
 17  6  2  0  0  0  0
 18  6  1  0  0  0  0
 19 11  1  0  0  0  0
 20 23  1  0  0  0  0
 21 18  2  0  0  0  0
 22 17  1  0  0  0  0
 23 19  2  0  0  0  0
 24 21  1  0  0  0  0
  7  3  2  0  0  0  0
 16 20  2  0  0  0  0
 22 24  2  0  0  0  0
M  END
> <#>
1503

> <PLATE>
LAT019

> <ROW>
G

> <COL>
9

> <COORD>
G09

> <LATID>
LAT019G09

> <Supplier>
Chembridge

> <Suplier_CAT#>
7944473

> <Name>
Novel

> <Concentration_(mM)>
2.5

> <IC50_(µM)>
inactive

> <Yeast_Active?>
-

> <Pubchem_CID>
1245116

$$$$
