
  -ISIS-  08130814242D

 31 34  0  0  0  0  0  0  0  0999 V2000
    2.5167    2.3583    0.0000 N   0  0  3  0  0  0  0  0  0  0  0  0
    3.6667    2.7333    0.0000 C   0  0  3  0  0  0  0  0  0  0  0  0
    2.5167    3.1083    0.0000 C   0  0  0  0  0  0  0  0  0  0  0  0
    4.4167    2.7333    0.0000 C   0  0  0  0  0  0  0  0  0  0  0  0
    3.2292    2.1250    0.0000 C   0  0  0  0  0  0  0  0  0  0  0  0
    4.7917    2.0833    0.0000 N   0  0  3  0  0  0  0  0  0  0  0  0
    3.2292    3.3375    0.0000 C   0  0  0  0  0  0  0  0  0  0  0  0
    5.9167    0.1333    0.0000 C   0  0  0  0  0  0  0  0  0  0  0  0
    1.9042    1.9208    0.0000 C   0  0  0  0  0  0  0  0  0  0  0  0
    6.6667    0.1333    0.0000 N   0  0  0  0  0  0  0  0  0  0  0  0
    1.9042    3.5458    0.0000 O   0  0  0  0  0  0  0  0  0  0  0  0
    4.7917    3.3833    0.0000 O   0  0  0  0  0  0  0  0  0  0  0  0
    5.5417    0.7833    0.0000 C   0  0  3  0  0  0  0  0  0  0  0  0
    5.5417    2.0833    0.0000 C   0  0  0  0  0  0  0  0  0  0  0  0
    4.4167    1.4333    0.0000 C   0  0  0  0  0  0  0  0  0  0  0  0
    8.1667   -1.1667    0.0000 N   0  0  0  0  0  0  0  0  0  0  0  0
    5.5417   -0.5167    0.0000 O   0  0  0  0  0  0  0  0  0  0  0  0
    4.7917    0.7833    0.0000 C   0  0  0  0  0  0  0  0  0  0  0  0
    5.9167    1.4333    0.0000 C   0  0  0  0  0  0  0  0  0  0  0  0
    1.2250    2.2208    0.0000 C   0  0  0  0  0  0  0  0  0  0  0  0
    1.9875    1.1708    0.0000 C   0  0  0  0  0  0  0  0  0  0  0  0
    7.0417   -0.5167    0.0000 C   0  0  0  0  0  0  0  0  0  0  0  0
    7.7917   -0.5167    0.0000 C   0  0  0  0  0  0  0  0  0  0  0  0
    1.3792    0.7333    0.0000 C   0  0  0  0  0  0  0  0  0  0  0  0
    0.6167    1.7833    0.0000 C   0  0  0  0  0  0  0  0  0  0  0  0
    0.6917    1.0333    0.0000 C   0  0  0  0  0  0  0  0  0  0  0  0
    8.9167   -1.1667    0.0000 C   0  0  0  0  0  0  0  0  0  0  0  0
    8.1667    0.1333    0.0000 C   0  0  0  0  0  0  0  0  0  0  0  0
    0.0875    0.5958    0.0000 C   0  0  0  0  0  0  0  0  0  0  0  0
    9.2917   -0.5167    0.0000 C   0  0  0  0  0  0  0  0  0  0  0  0
    8.9167    0.1333    0.0000 C   0  0  0  0  0  0  0  0  0  0  0  0
  2  5  1  0  0  0  0
  3  1  1  0  0  0  0
  4  2  1  0  0  0  0
  5  1  1  0  0  0  0
  6  4  1  0  0  0  0
  7  3  1  0  0  0  0
  8 13  1  0  0  0  0
  9  1  1  0  0  0  0
 10  8  1  0  0  0  0
 11  3  2  0  0  0  0
 12  4  2  0  0  0  0
 13 18  1  0  0  0  0
 14  6  1  0  0  0  0
 15  6  1  0  0  0  0
 16 23  1  0  0  0  0
 17  8  2  0  0  0  0
 18 15  1  0  0  0  0
 19 14  1  0  0  0  0
 20  9  2  0  0  0  0
 21  9  1  0  0  0  0
 22 10  1  0  0  0  0
 23 22  1  0  0  0  0
 24 21  2  0  0  0  0
 25 20  1  0  0  0  0
 26 24  1  0  0  0  0
 27 16  2  0  0  0  0
 28 23  2  0  0  0  0
 29 26  1  0  0  0  0
 30 31  2  0  0  0  0
 31 28  1  0  0  0  0
  2  7  1  0  0  0  0
 25 26  2  0  0  0  0
 19 13  1  0  0  0  0
 30 27  1  0  0  0  0
M  END
> <#>
1569

> <PLATE>
LAT020

> <ROW>
A

> <COL>
8

> <COORD>
A08

> <LATID>
LAT020A08

> <Supplier>
Chembridge

> <Suplier_CAT#>
9040933

> <Name>
Novel

> <Concentration_(mM)>
2.5

> <IC50_(µM)>
inactive

> <Yeast_Active?>
-

> <Pubchem_CID>
6463953

$$$$
