
  -ISIS-  08130814242D

 22 25  0  0  0  0  0  0  0  0999 V2000
    7.8792   -5.0042    0.0000 C   0  0  3  0  0  0  0  0  0  0  0  0
    5.9125   -8.4167    0.0000 C   0  0  0  0  0  0  0  0  0  0  0  0
   12.4417    0.0708    0.0000 C   0  0  3  0  0  0  0  0  0  0  0  0
    5.7667    1.4833    0.0000 C   0  0  3  0  0  0  0  0  0  0  0  0
   11.6292   -3.7875    0.0000 C   0  0  0  0  0  0  0  0  0  0  0  0
    4.9542   -2.3667    0.0000 C   0  0  0  0  0  0  0  0  0  0  0  0
   11.8167   -0.6292    0.0000 C   0  0  0  0  0  0  0  0  0  0  0  0
    1.9750   -8.4167    0.0000 N   0  0  0  0  0  0  0  0  0  0  0  0
    9.9917    4.9542    0.0000 C   0  0  3  0  0  0  0  0  0  0  0  0
    9.5167    2.7083    0.0000 C   0  0  0  0  0  0  0  0  0  0  0  0
    7.0417    4.2292    0.0000 C   0  0  0  0  0  0  0  0  0  0  0  0
   12.4000    3.1083    0.0000 C   0  0  0  0  0  0  0  0  0  0  0  0
   -6.0417  -15.1792    0.0000 N   0  0  0  0  0  0  0  0  0  0  0  0
    7.8792  -11.8292    0.0000 O   0  0  0  0  0  0  0  0  0  0  0  0
   -0.0250  -11.8125    0.0000 C   0  0  0  0  0  0  0  0  0  0  0  0
   -3.9833  -11.7875    0.0000 C   0  0  0  0  0  0  0  0  0  0  0  0
   16.0000   -1.6292    0.0000 C   0  0  0  0  0  0  0  0  0  0  0  0
    1.8292    1.3708    0.0000 C   0  0  0  0  0  0  0  0  0  0  0  0
  -10.0042  -15.1042    0.0000 C   0  0  0  0  0  0  0  0  0  0  0  0
   -5.9333   -8.3667    0.0000 C   0  0  0  0  0  0  0  0  0  0  0  0
  -11.9542  -11.6667    0.0000 C   0  0  0  0  0  0  0  0  0  0  0  0
   -9.8792   -8.2917    0.0000 C   0  0  0  0  0  0  0  0  0  0  0  0
  2  1  1  0  0  0  0
  3  5  1  0  0  0  0
  4  6  1  0  0  0  0
  5  1  1  0  0  0  0
  6  1  1  0  0  0  0
  7  1  1  0  0  0  0
  8  2  1  0  0  0  0
  9  7  1  0  0  0  0
 10  4  1  0  0  0  0
 11  9  1  0  0  0  0
 12  9  1  0  0  0  0
 13 16  2  0  0  0  0
 14  2  2  0  0  0  0
 15  8  1  0  0  0  0
 16 15  1  0  0  0  0
 17  3  1  0  0  0  0
 18  4  1  0  0  0  0
 19 13  1  0  0  0  0
 20 16  1  0  0  0  0
 21 22  1  0  0  0  0
 22 20  2  0  0  0  0
 12  3  1  0  0  0  0
 11  4  1  0  0  0  0
 10  3  1  0  0  0  0
 19 21  2  0  0  0  0
M  END
> <#>
1412

> <PLATE>
LAT018

> <ROW>
D

> <COL>
8

> <COORD>
D08

> <LATID>
LAT018D08

> <Supplier>
Chembridge

> <Suplier_CAT#>
9052345

> <Name>
Novel

> <Concentration_(mM)>
2.5

> <IC50_(µM)>
inactive

> <Yeast_Active?>
-

> <Pubchem_CID>
6469280

$$$$
