
  -ISIS-  08130814242D

 20 21  0  0  0  0  0  0  0  0999 V2000
    4.1375    1.3500    0.0000 N   0  3  0  0  0  0  0  0  0  0  0  0
    3.8375    0.1333    0.0000 C   0  0  0  0  0  0  0  0  0  0  0  0
    1.0875   -1.6500    0.0000 C   0  0  0  0  0  0  0  0  0  0  0  0
    2.2875   -1.3542    0.0000 C   0  0  0  0  0  0  0  0  0  0  0  0
    2.6292   -0.2042    0.0000 C   0  0  0  0  0  0  0  0  0  0  0  0
    3.2875    2.2083    0.0000 O   0  5  0  0  0  0  0  0  0  0  0  0
    5.3667    1.6458    0.0000 O   0  0  0  0  0  0  0  0  0  0  0  0
   -3.0458   -0.5542    0.0000 C   0  0  0  0  0  0  0  0  0  0  0  0
    0.7542   -2.8792    0.0000 O   0  0  0  0  0  0  0  0  0  0  0  0
    0.2167   -0.7875    0.0000 N   0  0  0  0  0  0  0  0  0  0  0  0
   -3.3958   -1.7500    0.0000 C   0  0  0  0  0  0  0  0  0  0  0  0
   -0.9625   -1.1042    0.0000 C   0  0  0  0  0  0  0  0  0  0  0  0
    4.7167   -0.7375    0.0000 C   0  0  0  0  0  0  0  0  0  0  0  0
    3.1792   -2.2375    0.0000 C   0  0  0  0  0  0  0  0  0  0  0  0
   -1.8458   -0.2875    0.0000 C   0  0  0  0  0  0  0  0  0  0  0  0
    4.4000   -1.9167    0.0000 C   0  0  0  0  0  0  0  0  0  0  0  0
   -3.9458    0.2833    0.0000 C   0  0  0  0  0  0  0  0  0  0  0  0
   -4.5833   -2.0875    0.0000 C   0  0  0  0  0  0  0  0  0  0  0  0
   -5.1458   -0.0167    0.0000 C   0  0  0  0  0  0  0  0  0  0  0  0
   -5.4833   -1.2167    0.0000 C   0  0  0  0  0  0  0  0  0  0  0  0
  2  1  1  0  0  0  0
  3  4  1  0  0  0  0
  4  5  2  0  0  0  0
  5  2  1  0  0  0  0
  6  1  1  0  0  0  0
  7  1  2  0  0  0  0
  8 15  1  0  0  0  0
  9  3  2  0  0  0  0
 10  3  1  0  0  0  0
 11  8  2  0  0  0  0
 12 10  1  0  0  0  0
 13  2  2  0  0  0  0
 14 16  2  0  0  0  0
 15 12  1  0  0  0  0
 16 13  1  0  0  0  0
 17  8  1  0  0  0  0
 18 11  1  0  0  0  0
 19 17  1  0  0  0  0
 20 19  1  0  0  0  0
 14  4  1  0  0  0  0
 18 20  1  0  0  0  0
M  CHG  2   1   1   6  -1
M  END
> <#>
1088

> <PLATE>
LAT014

> <ROW>
H

> <COL>
7

> <COORD>
H07

> <LATID>
LAT014H07

> <Supplier>
Chembridge

> <Suplier_CAT#>
6225723

> <Name>
Novel

> <Concentration_(mM)>
2.5

> <IC50_(µM)>
48

> <Yeast_Active?>
-

> <Pubchem_CID>
675955

$$$$
