
  -ISIS-  08130814242D

 31 34  0  0  0  0  0  0  0  0999 V2000
    4.6750    3.3458    0.0000 C   0  0  0  0  0  0  0  0  0  0  0  0
    4.6750    2.5958    0.0000 C   0  0  0  0  0  0  0  0  0  0  0  0
    3.9625    3.5833    0.0000 N   0  0  0  0  0  0  0  0  0  0  0  0
    5.3250    3.7208    0.0000 N   0  0  3  0  0  0  0  0  0  0  0  0
    3.9625    2.3625    0.0000 N   0  0  3  0  0  0  0  0  0  0  0  0
    5.9750    2.5958    0.0000 N   0  0  3  0  0  0  0  0  0  0  0  0
    5.9750    3.3458    0.0000 C   0  0  0  0  0  0  0  0  0  0  0  0
    5.3250    2.2208    0.0000 C   0  0  0  0  0  0  0  0  0  0  0  0
    3.5167    2.9708    0.0000 C   0  0  0  0  0  0  0  0  0  0  0  0
    3.7292    1.6500    0.0000 C   0  0  0  0  0  0  0  0  0  0  0  0
    2.9917    1.4958    0.0000 C   0  0  0  0  0  0  0  0  0  0  0  0
    2.7667    2.9708    0.0000 N   0  0  0  0  0  0  0  0  0  0  0  0
    6.6250    3.7208    0.0000 O   0  0  0  0  0  0  0  0  0  0  0  0
    5.3250    1.4708    0.0000 O   0  0  0  0  0  0  0  0  0  0  0  0
    2.7667    0.7833    0.0000 C   0  0  0  0  0  0  0  0  0  0  0  0
    2.4917    2.0500    0.0000 C   0  0  0  0  0  0  0  0  0  0  0  0
    1.3917    4.3167    0.0000 N   0  0  0  0  0  0  0  0  0  0  0  0
    5.3250    4.4667    0.0000 C   0  0  0  0  0  0  0  0  0  0  0  0
    6.6250    2.2208    0.0000 C   0  0  0  0  0  0  0  0  0  0  0  0
    2.0292    0.6250    0.0000 C   0  0  0  0  0  0  0  0  0  0  0  0
    2.5167    3.6750    0.0000 C   0  0  0  0  0  0  0  0  0  0  0  0
    1.7625    1.8958    0.0000 C   0  0  0  0  0  0  0  0  0  0  0  0
    1.7667    3.6750    0.0000 C   0  0  0  0  0  0  0  0  0  0  0  0
    3.2667    0.2250    0.0000 Cl  0  0  0  0  0  0  0  0  0  0  0  0
    1.5292    1.1833    0.0000 C   0  0  0  0  0  0  0  0  0  0  0  0
    1.2625    2.4583    0.0000 O   0  0  0  0  0  0  0  0  0  0  0  0
    0.6417    4.3167    0.0000 C   0  0  0  0  0  0  0  0  0  0  0  0
    1.3917    3.0250    0.0000 C   0  0  0  0  0  0  0  0  0  0  0  0
    0.5250    2.2958    0.0000 C   0  0  0  0  0  0  0  0  0  0  0  0
    0.2667    3.6750    0.0000 C   0  0  0  0  0  0  0  0  0  0  0  0
    0.6417    3.0250    0.0000 C   0  0  0  0  0  0  0  0  0  0  0  0
  2  1  2  0  0  0  0
  3  1  1  0  0  0  0
  4  1  1  0  0  0  0
  5  2  1  0  0  0  0
  6  7  1  0  0  0  0
  7  4  1  0  0  0  0
  8  2  1  0  0  0  0
  9  3  2  0  0  0  0
 10  5  1  0  0  0  0
 11 10  1  0  0  0  0
 12  9  1  0  0  0  0
 13  7  2  0  0  0  0
 14  8  2  0  0  0  0
 15 11  2  0  0  0  0
 16 11  1  0  0  0  0
 17 23  1  0  0  0  0
 18  4  1  0  0  0  0
 19  6  1  0  0  0  0
 20 15  1  0  0  0  0
 21 12  1  0  0  0  0
 22 16  2  0  0  0  0
 23 21  1  0  0  0  0
 24 15  1  0  0  0  0
 25 22  1  0  0  0  0
 26 22  1  0  0  0  0
 27 17  2  0  0  0  0
 28 23  2  0  0  0  0
 29 26  1  0  0  0  0
 30 31  2  0  0  0  0
 31 28  1  0  0  0  0
  5  9  1  0  0  0  0
  6  8  1  0  0  0  0
 25 20  2  0  0  0  0
 30 27  1  0  0  0  0
M  END
> <#>
1587

> <PLATE>
LAT020

> <ROW>
C

> <COL>
10

> <COORD>
C10

> <LATID>
LAT020C10

> <Supplier>
Chembridge

> <Suplier_CAT#>
7984455

> <Name>
Novel

> <Concentration_(mM)>
2.5

> <IC50_(µM)>
78

> <Yeast_Active?>
-

> <Pubchem_CID>
1258003

$$$$
