
  -ISIS-  08130814242D

 19 20  0  0  0  0  0  0  0  0999 V2000
    0.5042    1.0125    0.0000 C   0  0  0  0  0  0  0  0  0  0  0  0
   -1.0958    1.0125    0.0000 C   0  0  0  0  0  0  0  0  0  0  0  0
   -0.2958    1.4833    0.0000 C   0  0  0  0  0  0  0  0  0  0  0  0
   -1.9083    1.4833    0.0000 C   0  0  0  0  0  0  0  0  0  0  0  0
    1.3167    1.5000    0.0000 C   0  0  0  0  0  0  0  0  0  0  0  0
   -0.3000    2.3000    0.0000 O   0  0  0  0  0  0  0  0  0  0  0  0
   -2.7125    1.0125    0.0000 C   0  0  0  0  0  0  0  0  0  0  0  0
   -4.3333    0.0708    0.0000 C   0  0  0  0  0  0  0  0  0  0  0  0
    1.3292    2.3000    0.0000 O   0  0  0  0  0  0  0  0  0  0  0  0
   -3.5208    1.4833    0.0000 C   0  0  0  0  0  0  0  0  0  0  0  0
   -2.7125    0.0708    0.0000 C   0  0  0  0  0  0  0  0  0  0  0  0
   -4.3333    1.0125    0.0000 C   0  0  0  0  0  0  0  0  0  0  0  0
   -3.5208   -0.4000    0.0000 C   0  0  0  0  0  0  0  0  0  0  0  0
   -4.9583   -0.3042    0.0000 O   0  0  0  0  0  0  0  0  0  0  0  0
    0.5167    0.0958    0.0000 C   0  0  0  0  0  0  0  0  0  0  0  0
    2.1292    1.0458    0.0000 C   0  0  0  0  0  0  0  0  0  0  0  0
   -4.9583   -1.0792    0.0000 C   0  0  0  0  0  0  0  0  0  0  0  0
    1.3375   -0.3792    0.0000 C   0  0  0  0  0  0  0  0  0  0  0  0
    2.1500    0.1125    0.0000 C   0  0  0  0  0  0  0  0  0  0  0  0
  2  3  1  0  0  0  0
  3  1  1  0  0  0  0
  4  2  2  0  0  0  0
  5  1  1  0  0  0  0
  6  3  2  0  0  0  0
  7  4  1  0  0  0  0
  8 13  2  0  0  0  0
  9  5  1  0  0  0  0
 10  7  1  0  0  0  0
 11  7  2  0  0  0  0
 12 10  2  0  0  0  0
 13 11  1  0  0  0  0
 14  8  1  0  0  0  0
 15  1  2  0  0  0  0
 16  5  2  0  0  0  0
 17 14  1  0  0  0  0
 18 15  1  0  0  0  0
 19 18  2  0  0  0  0
 16 19  1  0  0  0  0
  8 12  1  0  0  0  0
M  END
> <#>
1129

> <PLATE>
LAT015

> <ROW>
A

> <COL>
3

> <COORD>
A03

> <LATID>
LAT015A03

> <Supplier>
Chembridge

> <Suplier_CAT#>
5223671

> <Name>
Novel

> <Concentration_(mM)>
2.5

> <IC50_(µM)>
>100

> <Yeast_Active?>
+

> <Pubchem_CID>
95547

$$$$
