
  -ISIS-  08130814242D

 27 29  0  0  0  0  0  0  0  0999 V2000
    1.7875    3.9958    0.0000 S   0  0  3  0  0  0  0  0  0  0  0  0
    2.5375    3.9958    0.0000 N   0  0  3  0  0  0  0  0  0  0  0  0
    4.7875    3.9958    0.0000 C   0  0  0  0  0  0  0  0  0  0  0  0
    1.5917    3.2708    0.0000 C   0  0  0  0  0  0  0  0  0  0  0  0
    1.8542    4.7292    0.0000 O   0  0  0  0  0  0  0  0  0  0  0  0
    1.0500    4.1167    0.0000 O   0  0  0  0  0  0  0  0  0  0  0  0
    5.1625    3.3458    0.0000 N   0  0  0  0  0  0  0  0  0  0  0  0
    2.9125    3.3458    0.0000 C   0  0  0  0  0  0  0  0  0  0  0  0
    2.9125    4.6375    0.0000 C   0  0  0  0  0  0  0  0  0  0  0  0
    4.0375    3.9958    0.0000 C   0  0  3  0  0  0  0  0  0  0  0  0
    5.9125    2.0458    0.0000 N   0  0  0  0  0  0  0  0  0  0  0  0
    5.1625    4.6375    0.0000 O   0  0  0  0  0  0  0  0  0  0  0  0
    3.6625    4.6375    0.0000 C   0  0  0  0  0  0  0  0  0  0  0  0
    3.6625    3.3458    0.0000 C   0  0  0  0  0  0  0  0  0  0  0  0
    0.8667    3.0708    0.0000 C   0  0  0  0  0  0  0  0  0  0  0  0
    2.1250    2.7375    0.0000 C   0  0  0  0  0  0  0  0  0  0  0  0
    5.9125    3.3458    0.0000 C   0  0  0  0  0  0  0  0  0  0  0  0
    6.2875    2.6958    0.0000 C   0  0  0  0  0  0  0  0  0  0  0  0
    1.2042    1.8208    0.0000 C   0  0  0  0  0  0  0  0  0  0  0  0
    1.0125    1.0958    0.0000 S   0  0  0  0  0  0  0  0  0  0  0  0
    0.6750    2.3500    0.0000 C   0  0  0  0  0  0  0  0  0  0  0  0
    1.9292    2.0208    0.0000 C   0  0  0  0  0  0  0  0  0  0  0  0
    6.2875    1.3958    0.0000 C   0  0  0  0  0  0  0  0  0  0  0  0
    1.5417    0.5625    0.0000 C   0  0  0  0  0  0  0  0  0  0  0  0
    7.0375    2.6958    0.0000 C   0  0  0  0  0  0  0  0  0  0  0  0
    7.0375    1.3958    0.0000 C   0  0  0  0  0  0  0  0  0  0  0  0
    7.4125    2.0458    0.0000 C   0  0  0  0  0  0  0  0  0  0  0  0
  2  1  1  0  0  0  0
  3 10  1  0  0  0  0
  4  1  1  0  0  0  0
  5  1  2  0  0  0  0
  6  1  2  0  0  0  0
  7  3  1  0  0  0  0
  8  2  1  0  0  0  0
  9  2  1  0  0  0  0
 10 13  1  0  0  0  0
 11 18  1  0  0  0  0
 12  3  2  0  0  0  0
 13  9  1  0  0  0  0
 14  8  1  0  0  0  0
 15  4  2  0  0  0  0
 16  4  1  0  0  0  0
 17  7  1  0  0  0  0
 18 17  1  0  0  0  0
 19 22  1  0  0  0  0
 20 19  1  0  0  0  0
 21 15  1  0  0  0  0
 22 16  2  0  0  0  0
 23 11  2  0  0  0  0
 24 20  1  0  0  0  0
 25 18  2  0  0  0  0
 26 27  2  0  0  0  0
 27 25  1  0  0  0  0
 21 19  2  0  0  0  0
 14 10  1  0  0  0  0
 26 23  1  0  0  0  0
M  END
> <#>
1428

> <PLATE>
LAT018

> <ROW>
D

> <COL>
10

> <COORD>
D10

> <LATID>
LAT018D10

> <Supplier>
Chembridge

> <Suplier_CAT#>
9062588

> <Name>
Novel

> <Concentration_(mM)>
2.5

> <IC50_(µM)>
>100

> <Yeast_Active?>
-

> <Pubchem_CID>
6472270

$$$$
