
  -ISIS-  08130814242D

 17 19  0  0  0  0  0  0  0  0999 V2000
    0.3792    0.8958    0.0000 C   0  0  0  0  0  0  0  0  0  0  0  0
    0.3792   -0.6500    0.0000 C   0  0  0  0  0  0  0  0  0  0  0  0
   -0.9833   -1.4500    0.0000 S   0  0  0  0  0  0  0  0  0  0  0  0
   -0.9833    1.6958    0.0000 C   0  0  0  0  0  0  0  0  0  0  0  0
   -2.3333    0.9125    0.0000 C   0  0  0  0  0  0  0  0  0  0  0  0
   -2.3333   -0.6667    0.0000 C   0  0  0  0  0  0  0  0  0  0  0  0
    1.7375   -1.4292    0.0000 C   0  0  0  0  0  0  0  0  0  0  0  0
    1.7375    1.6708    0.0000 C   0  0  0  0  0  0  0  0  0  0  0  0
   -0.9833    3.2708    0.0000 O   0  0  0  0  0  0  0  0  0  0  0  0
    3.1000   -0.6375    0.0000 C   0  0  0  0  0  0  0  0  0  0  0  0
    3.1000    0.8708    0.0000 C   0  0  0  0  0  0  0  0  0  0  0  0
    4.5167    1.6208    0.0000 O   0  0  0  0  0  0  0  0  0  0  0  0
   -3.6958    1.6958    0.0000 C   0  0  0  0  0  0  0  0  0  0  0  0
   -3.6958   -1.4500    0.0000 C   0  0  0  0  0  0  0  0  0  0  0  0
    1.7375   -3.0042    0.0000 C   0  0  0  0  0  0  0  0  0  0  0  0
   -5.0500    0.8958    0.0000 C   0  0  0  0  0  0  0  0  0  0  0  0
   -5.0500   -0.6500    0.0000 C   0  0  0  0  0  0  0  0  0  0  0  0
  2  1  2  0  0  0  0
  3  2  1  0  0  0  0
  4  1  1  0  0  0  0
  5  4  1  0  0  0  0
  6  5  2  0  0  0  0
  7  2  1  0  0  0  0
  8  1  1  0  0  0  0
  9  4  2  0  0  0  0
 10 11  1  0  0  0  0
 11  8  2  0  0  0  0
 12 11  1  0  0  0  0
 13  5  1  0  0  0  0
 14  6  1  0  0  0  0
 15  7  1  0  0  0  0
 16 13  2  0  0  0  0
 17 16  1  0  0  0  0
 10  7  2  0  0  0  0
  3  6  1  0  0  0  0
 14 17  2  0  0  0  0
M  END
> <#>
1195

> <PLATE>
LAT015

> <ROW>
C

> <COL>
11

> <COORD>
C11

> <LATID>
LAT015C11

> <Supplier>
Chembridge

> <Suplier_CAT#>
5759965

> <Name>
Novel

> <Concentration_(mM)>
2.5

> <IC50_(µM)>
inactive

> <Yeast_Active?>
-

> <Pubchem_CID>
NULL

$$$$
