
  -ISIS-  08130814242D

  9  9  0  0  0  0  0  0  0  0999 V2000
    7.7589   -3.2875    0.0000 C   0  0  0  0  0  0  0  0  0  0  0  0
    6.8665   -3.2875    0.0000 C   0  0  0  0  0  0  0  0  0  0  0  0
    6.4204   -4.0603    0.0000 C   0  0  0  0  0  0  0  0  0  0  0  0
    5.5281   -4.0603    0.0000 C   0  0  0  0  0  0  0  0  0  0  0  0
    5.0819   -3.2875    0.0000 C   0  0  0  0  0  0  0  0  0  0  0  0
    5.5281   -2.5147    0.0000 C   0  0  0  0  0  0  0  0  0  0  0  0
    6.4204   -2.5147    0.0000 C   0  0  0  0  0  0  0  0  0  0  0  0
    8.2050   -2.5147    0.0000 O   0  0  0  0  0  0  0  0  0  0  0  0
    8.2050   -4.0603    0.0000 O   0  0  0  0  0  0  0  0  0  0  0  0
  1  2  1  0  0  0  0
  2  3  1  0  0  0  0
  3  4  2  0  0  0  0
  4  5  1  0  0  0  0
  5  6  2  0  0  0  0
  6  7  1  0  0  0  0
  2  7  2  0  0  0  0
  1  8  2  0  0  0  0
  1  9  1  0  0  0  0
M  END
> <#>
493

> <PLATE>
LAT007

> <ROW>
E

> <COL>
3

> <COORD>
E03

> <LATID>
LAT007E03

> <Supplier>
Aldrich

> <Suplier_CAT#>
24,238-1

> <Name>
Benzoic Acid

> <Concentration_(mM)>
2.5

> <IC50_(µM)>
>100

> <Yeast_Active?>
-

> <Pubchem_CID>
243

$$$$
