
  -ISIS-  08130814242D

 26 30  0  0  0  0  0  0  0  0999 V2000
   -2.6000    1.2625    0.0000 C   0  0  0  0  0  0  0  0  0  0  0  0
   -2.0208    0.9333    0.0000 C   0  0  0  0  0  0  0  0  0  0  0  0
   -2.0208    0.2708    0.0000 C   0  0  0  0  0  0  0  0  0  0  0  0
   -2.6000   -0.0542    0.0000 C   0  0  0  0  0  0  0  0  0  0  0  0
   -1.4458    1.2625    0.0000 C   0  0  0  0  0  0  0  0  0  0  0  0
   -1.4000    1.8958    0.0000 N   0  0  3  0  0  0  0  0  0  0  0  0
   -1.9833    2.1958    0.0000 C   0  0  0  0  0  0  0  0  0  0  0  0
   -2.5833    1.8958    0.0000 C   0  0  0  0  0  0  0  0  0  0  0  0
   -3.1833    0.9333    0.0000 C   0  0  0  0  0  0  0  0  0  0  0  0
   -3.1833    0.2708    0.0000 C   0  0  0  0  0  0  0  0  0  0  0  0
   -1.4458   -0.0542    0.0000 C   0  0  0  0  0  0  0  0  0  0  0  0
   -1.4458   -0.7000    0.0000 N   0  0  3  0  0  0  0  0  0  0  0  0
   -0.8625    0.9333    0.0000 C   0  0  0  0  0  0  0  0  0  0  0  0
   -0.8625    0.2708    0.0000 C   0  0  0  0  0  0  0  0  0  0  0  0
   -2.5625   -0.5292    0.0000 O   0  0  0  0  0  0  0  0  0  0  0  0
   -2.0000    2.6958    0.0000 O   0  0  0  0  0  0  0  0  0  0  0  0
   -0.7333    2.0958    0.0000 C   0  0  0  0  0  0  0  0  0  0  0  0
   -3.7625    1.2625    0.0000 C   0  0  0  0  0  0  0  0  0  0  0  0
   -3.7625   -0.0542    0.0000 C   0  0  0  0  0  0  0  0  0  0  0  0
   -1.9958   -1.0292    0.0000 C   0  0  0  0  0  0  0  0  0  0  0  0
   -0.8958   -1.0167    0.0000 C   0  0  0  0  0  0  0  0  0  0  0  0
   -4.3458    0.2708    0.0000 C   0  0  0  0  0  0  0  0  0  0  0  0
   -4.3458    0.9333    0.0000 C   0  0  0  0  0  0  0  0  0  0  0  0
   -0.8833   -1.6542    0.0000 C   0  0  0  0  0  0  0  0  0  0  0  0
   -1.9833   -1.6667    0.0000 C   0  0  0  0  0  0  0  0  0  0  0  0
   -1.4333   -2.0000    0.0000 C   0  0  0  0  0  0  0  0  0  0  0  0
  2  1  1  0  0  0  0
  3  2  2  0  0  0  0
  4 10  1  0  0  0  0
  5  2  1  0  0  0  0
  6  7  1  0  0  0  0
  7  8  1  0  0  0  0
  8  1  2  0  0  0  0
  9  1  1  0  0  0  0
 10  9  2  0  0  0  0
 11  3  1  0  0  0  0
 12 11  1  0  0  0  0
 13  5  2  0  0  0  0
 14 13  1  0  0  0  0
 15  4  2  0  0  0  0
 16  7  2  0  0  0  0
 17  6  1  0  0  0  0
 18  9  1  0  0  0  0
 19 10  1  0  0  0  0
 20 12  1  0  0  0  0
 21 12  1  0  0  0  0
 22 23  1  0  0  0  0
 23 18  2  0  0  0  0
 24 21  1  0  0  0  0
 25 20  1  0  0  0  0
 26 24  1  0  0  0  0
  3  4  1  0  0  0  0
  6  5  1  0  0  0  0
 19 22  2  0  0  0  0
 14 11  2  0  0  0  0
 26 25  1  0  0  0  0
M  END
> <#>
2058

> <PLATE>
LAT026

> <ROW>
B

> <COL>
9

> <COORD>
B09

> <LATID>
LAT026B09

> <Supplier>
Chembridge

> <Suplier_CAT#>
5634704

> <Sec_Name>
192_D09

> <Concentration_(mM)>
2.5

> <IC50_(µM)>
>100

> <Yeast_Active?>
-

> <Pubchem_CID>
NULL

$$$$
