
  -ISIS-  08130814242D

 31 34  0  0  0  0  0  0  0  0999 V2000
    6.3417   -1.7917    0.0000 N   0  0  3  0  0  0  0  0  0  0  0  0
    5.6417   -1.3625    0.0000 C   0  0  0  0  0  0  0  0  0  0  0  0
    5.8292   -0.5542    0.0000 N   0  0  0  0  0  0  0  0  0  0  0  0
    6.9667   -1.2500    0.0000 C   0  0  0  0  0  0  0  0  0  0  0  0
    6.6542   -0.4875    0.0000 N   0  0  0  0  0  0  0  0  0  0  0  0
    4.8667   -1.6417    0.0000 C   0  0  0  0  0  0  0  0  0  0  0  0
    7.7792   -1.4292    0.0000 S   0  0  0  0  0  0  0  0  0  0  0  0
    6.4500   -2.6125    0.0000 C   0  0  0  0  0  0  0  0  0  0  0  0
    9.1750   -1.5500    0.0000 C   0  0  0  0  0  0  0  0  0  0  0  0
    4.7292   -2.4542    0.0000 C   0  0  0  0  0  0  0  0  0  0  0  0
    9.9042   -1.2042    0.0000 N   0  0  0  0  0  0  0  0  0  0  0  0
    9.1042   -2.3542    0.0000 O   0  0  0  0  0  0  0  0  0  0  0  0
    8.5125   -1.0917    0.0000 C   0  0  0  0  0  0  0  0  0  0  0  0
    3.9542   -2.7417    0.0000 C   0  0  0  0  0  0  0  0  0  0  0  0
    9.9667   -0.3917    0.0000 C   0  0  0  0  0  0  0  0  0  0  0  0
   10.7042   -0.0417    0.0000 C   0  0  0  0  0  0  0  0  0  0  0  0
    3.8167   -3.5542    0.0000 N   0  0  0  0  0  0  0  0  0  0  0  0
   12.1667    0.6500    0.0000 C   0  0  0  0  0  0  0  0  0  0  0  0
   11.3750   -0.5000    0.0000 C   0  0  0  0  0  0  0  0  0  0  0  0
   10.7792    0.7708    0.0000 C   0  0  0  0  0  0  0  0  0  0  0  0
   12.1042   -0.1542    0.0000 C   0  0  0  0  0  0  0  0  0  0  0  0
   11.5042    1.1125    0.0000 C   0  0  0  0  0  0  0  0  0  0  0  0
    4.2417   -1.1167    0.0000 C   0  0  0  0  0  0  0  0  0  0  0  0
    3.4667   -1.4042    0.0000 C   0  0  0  0  0  0  0  0  0  0  0  0
    7.2042   -2.9292    0.0000 C   0  0  0  0  0  0  0  0  0  0  0  0
    5.7917   -3.1125    0.0000 C   0  0  0  0  0  0  0  0  0  0  0  0
    3.3250   -2.2125    0.0000 C   0  0  0  0  0  0  0  0  0  0  0  0
   12.9125    1.0000    0.0000 C   0  0  0  0  0  0  0  0  0  0  0  0
    7.3125   -3.7500    0.0000 C   0  0  0  0  0  0  0  0  0  0  0  0
    5.9000   -3.9292    0.0000 C   0  0  0  0  0  0  0  0  0  0  0  0
    6.6542   -4.2417    0.0000 C   0  0  0  0  0  0  0  0  0  0  0  0
  2  1  1  0  0  0  0
  3  2  2  0  0  0  0
  4  1  1  0  0  0  0
  5  4  2  0  0  0  0
  6  2  1  0  0  0  0
  7  4  1  0  0  0  0
  8  1  1  0  0  0  0
  9 13  1  0  0  0  0
 10  6  1  0  0  0  0
 11  9  1  0  0  0  0
 12  9  2  0  0  0  0
 13  7  1  0  0  0  0
 14 10  2  0  0  0  0
 15 11  1  0  0  0  0
 16 15  1  0  0  0  0
 17 14  1  0  0  0  0
 18 22  1  0  0  0  0
 19 16  2  0  0  0  0
 20 16  1  0  0  0  0
 21 19  1  0  0  0  0
 22 20  2  0  0  0  0
 23  6  2  0  0  0  0
 24 23  1  0  0  0  0
 25  8  1  0  0  0  0
 26  8  2  0  0  0  0
 27 24  2  0  0  0  0
 28 18  1  0  0  0  0
 29 25  2  0  0  0  0
 30 26  1  0  0  0  0
 31 30  2  0  0  0  0
  3  5  1  0  0  0  0
 31 29  1  0  0  0  0
 14 27  1  0  0  0  0
 18 21  2  0  0  0  0
M  END
> <#>
1737

> <PLATE>
LAT022

> <ROW>
A

> <COL>
9

> <COORD>
A09

> <LATID>
LAT022A09

> <Supplier>
Chembridge

> <Suplier_CAT#>
7748995

> <Name>
Novel

> <Concentration_(mM)>
2.5

> <IC50_(µM)>
>100

> <Yeast_Active?>
-

> <Pubchem_CID>
1291362

$$$$
