
  -ISIS-  08130814242D

 22 23  0  0  0  0  0  0  0  0999 V2000
    4.8042   -0.4167    0.0000 C   0  0  0  0  0  0  0  0  0  0  0  0
    2.6667   -0.8375    0.0000 C   0  0  0  0  0  0  0  0  0  0  0  0
    4.1000   -0.8292    0.0000 N   0  0  0  0  0  0  0  0  0  0  0  0
    4.8000    0.4000    0.0000 C   0  0  0  0  0  0  0  0  0  0  0  0
    3.3875   -1.2500    0.0000 N   0  0  0  0  0  0  0  0  0  0  0  0
    1.2500   -0.8375    0.0000 O   0  0  0  0  0  0  0  0  0  0  0  0
    5.5167   -0.8167    0.0000 O   0  0  0  0  0  0  0  0  0  0  0  0
    2.6667   -0.0042    0.0000 O   0  0  0  0  0  0  0  0  0  0  0  0
    4.0875    0.8000    0.0000 C   0  0  0  0  0  0  0  0  0  0  0  0
    0.5292   -1.2542    0.0000 C   0  0  0  0  0  0  0  0  0  0  0  0
    1.9542   -1.2500    0.0000 C   0  0  0  0  0  0  0  0  0  0  0  0
    0.5292   -2.0875    0.0000 C   0  0  0  0  0  0  0  0  0  0  0  0
    4.0792    1.6333    0.0000 C   0  0  0  0  0  0  0  0  0  0  0  0
    5.5167    0.8125    0.0000 C   0  0  0  0  0  0  0  0  0  0  0  0
    5.5042    1.6458    0.0000 C   0  0  0  0  0  0  0  0  0  0  0  0
   -0.1708   -0.8500    0.0000 C   0  0  0  0  0  0  0  0  0  0  0  0
    1.2500   -2.5000    0.0000 C   0  0  0  0  0  0  0  0  0  0  0  0
   -0.1708   -2.5000    0.0000 C   0  0  0  0  0  0  0  0  0  0  0  0
    4.8000    2.0500    0.0000 C   0  0  0  0  0  0  0  0  0  0  0  0
    3.3542    2.0458    0.0000 C   0  0  0  0  0  0  0  0  0  0  0  0
   -0.8958   -1.2542    0.0000 C   0  0  0  0  0  0  0  0  0  0  0  0
   -0.8958   -2.0875    0.0000 C   0  0  0  0  0  0  0  0  0  0  0  0
  2  5  1  0  0  0  0
  3  1  1  0  0  0  0
  4  1  1  0  0  0  0
  5  3  1  0  0  0  0
  6 11  1  0  0  0  0
  7  1  2  0  0  0  0
  8  2  2  0  0  0  0
  9  4  2  0  0  0  0
 10  6  1  0  0  0  0
 11  2  1  0  0  0  0
 12 10  1  0  0  0  0
 13  9  1  0  0  0  0
 14  4  1  0  0  0  0
 15 14  2  0  0  0  0
 16 10  2  0  0  0  0
 17 12  1  0  0  0  0
 18 12  2  0  0  0  0
 19 15  1  0  0  0  0
 20 13  1  0  0  0  0
 21 16  1  0  0  0  0
 22 21  2  0  0  0  0
 19 13  2  0  0  0  0
 18 22  1  0  0  0  0
M  END
> <#>
778

> <PLATE>
LAT010

> <ROW>
B

> <COL>
9

> <COORD>
B09

> <LATID>
LAT010B09

> <Supplier>
Chembridge

> <Suplier_CAT#>
5618646

> <Name>
Novel

> <Sec_Name>
186_E07

> <Concentration_(mM)>
2.5

> <IC50_(µM)>
12.5

> <Yeast_Active?>
-

> <Pubchem_CID>
2067938

$$$$
