
  -ISIS-  08130814242D

 39 41  0  0  0  0  0  0  0  0999 V2000
    3.1750   -1.0875    0.0000 N   0  0  3  0  0  0  0  0  0  0  0  0
    3.5792   -1.8000    0.0000 C   0  0  0  0  0  0  0  0  0  0  0  0
   -0.6958   -0.5000    0.0000 N   0  0  3  0  0  0  0  0  0  0  0  0
    3.5792   -0.3667    0.0000 C   0  0  0  0  0  0  0  0  0  0  0  0
   -1.7458   -0.4792    0.0000 C   0  0  0  0  0  0  0  0  0  0  0  0
    2.3500   -1.0875    0.0000 C   0  0  0  0  0  0  0  0  0  0  0  0
    0.9417   -0.5042    0.0000 N   0  0  3  0  0  0  0  0  0  0  0  0
    3.1750    0.3458    0.0000 N   0  0  0  0  0  0  0  0  0  0  0  0
    3.1667   -2.5125    0.0000 O   0  0  0  0  0  0  0  0  0  0  0  0
   -0.2875    0.2125    0.0000 C   0  0  0  0  0  0  0  0  0  0  0  0
   -0.2875   -1.2125    0.0000 C   0  0  0  0  0  0  0  0  0  0  0  0
    4.4042   -1.8000    0.0000 C   0  0  3  0  0  0  0  0  0  0  0  0
   -2.1583    0.2333    0.0000 C   0  0  0  0  0  0  0  0  0  0  0  0
    1.7667   -0.5042    0.0000 C   0  0  0  0  0  0  0  0  0  0  0  0
    0.5292    0.2083    0.0000 C   0  0  0  0  0  0  0  0  0  0  0  0
    0.5292   -1.2125    0.0000 C   0  0  0  0  0  0  0  0  0  0  0  0
   -1.7458    0.9500    0.0000 O   0  0  0  0  0  0  0  0  0  0  0  0
    4.4042   -0.3667    0.0000 C   0  0  0  0  0  0  0  0  0  0  0  0
   -2.1583   -1.1792    0.0000 C   0  0  0  0  0  0  0  0  0  0  0  0
    3.5792    1.0583    0.0000 C   0  0  0  0  0  0  0  0  0  0  0  0
   -2.9708    0.2333    0.0000 C   0  0  0  0  0  0  0  0  0  0  0  0
    4.8167   -1.0875    0.0000 C   0  0  0  0  0  0  0  0  0  0  0  0
    4.8167   -2.5125    0.0000 C   0  0  0  0  0  0  0  0  0  0  0  0
   -1.7500    1.7750    0.0000 C   0  0  0  0  0  0  0  0  0  0  0  0
    4.8167    0.3458    0.0000 C   0  0  0  0  0  0  0  0  0  0  0  0
   -2.9708   -1.1792    0.0000 C   0  0  0  0  0  0  0  0  0  0  0  0
    4.4042    1.0583    0.0000 C   0  0  0  0  0  0  0  0  0  0  0  0
   -3.3750   -0.4667    0.0000 C   0  0  0  0  0  0  0  0  0  0  0  0
    5.6375   -1.0917    0.0000 C   0  0  0  0  0  0  0  0  0  0  0  0
    5.6292   -2.5125    0.0000 C   0  0  0  0  0  0  0  0  0  0  0  0
    6.0417   -1.8042    0.0000 C   0  0  0  0  0  0  0  0  0  0  0  0
    4.8292   -5.3667    0.0000 C   0  0  0  0  0  0  0  0  0  0  0  0
    6.8625   -5.2042    0.0000 C   0  0  0  0  0  0  0  0  0  0  0  0
    6.2792   -4.6167    0.0000 C   0  0  0  0  0  0  0  0  0  0  0  0
    5.4542   -4.6167    0.0000 C   0  0  0  0  0  0  0  0  0  0  0  0
    4.0292   -5.5792    0.0000 O   0  0  0  0  0  0  0  0  0  0  0  0
    7.6542   -5.4167    0.0000 O   0  0  0  0  0  0  0  0  0  0  0  0
    5.0417   -6.1667    0.0000 O   0  0  0  0  0  0  0  0  0  0  0  0
    6.8542   -6.0292    0.0000 O   0  0  0  0  0  0  0  0  0  0  0  0
  8  4  1  0  0  0  0
  9  2  2  0  0  0  0
 10 15  1  0  0  0  0
 11 16  1  0  0  0  0
 12  2  1  0  0  0  0
 13  5  1  0  0  0  0
 14  6  1  0  0  0  0
 15  7  1  0  0  0  0
 16  7  1  0  0  0  0
 17 13  1  0  0  0  0
 18  4  2  0  0  0  0
 19  5  2  0  0  0  0
 20  8  2  0  0  0  0
 21 13  2  0  0  0  0
 22 12  1  0  0  0  0
 23 12  1  0  0  0  0
 24 17  1  0  0  0  0
 25 18  1  0  0  0  0
 26 19  1  0  0  0  0
 27 25  2  0  0  0  0
 28 26  2  0  0  0  0
 29 22  1  0  0  0  0
 30 23  1  0  0  0  0
 31 30  1  0  0  0  0
 20 27  1  0  0  0  0
 10  3  1  0  0  0  0
 31 29  1  0  0  0  0
 21 28  1  0  0  0  0
  2  1  1  0  0  0  0
  3 11  1  0  0  0  0
  4  1  1  0  0  0  0
  5  3  1  0  0  0  0
  6  1  1  0  0  0  0
  7 14  1  0  0  0  0
 33 34  1  0  0  0  0
 34 35  2  0  0  0  0
 35 32  1  0  0  0  0
 36 32  2  0  0  0  0
 37 33  2  0  0  0  0
 38 32  1  0  0  0  0
 39 33  1  0  0  0  0
M  END
> <#>
292

> <PLATE>
LAT004

> <ROW>
D

> <COL>
8

> <COORD>
D08

> <LATID>
LAT004D08

> <Supplier>
Sigma

> <Suplier_CAT#>
W-108

> <Name>
Way-100635 Maleate

> <Concentration_(mM)>
2.5

> <IC50_(µM)>
9

> <Yeast_Active?>
-

> <Pubchem_CID>
5684

> <Description>
Highly selective 5-HT1A serotonin receptor antagonist

$$$$
