
  -ISIS-  08130814242D

 15 15  0  0  0  0  0  0  0  0999 V2000
    6.7250   -3.1644    0.0000 C   0  0  0  0  0  0  0  0  0  0  0  0
    6.1000   -4.2469    0.0000 C   0  0  0  0  0  0  0  0  0  0  0  0
    4.8500   -4.2469    0.0000 N   0  0  0  0  0  0  0  0  0  0  0  0
    4.2250   -3.1644    0.0000 C   0  0  0  0  0  0  0  0  0  0  0  0
    4.8500   -2.0819    0.0000 C   0  0  0  0  0  0  0  0  0  0  0  0
    6.1000   -2.0819    0.0000 N   0  0  0  0  0  0  0  0  0  0  0  0
    4.2250   -0.9993    0.0000 Cl  0  0  0  0  0  0  0  0  0  0  0  0
    2.9750   -3.1644    0.0000 N   0  0  0  0  0  0  0  0  0  0  0  0
    6.7250   -5.3295    0.0000 N   0  0  0  0  0  0  0  0  0  0  0  0
    7.9750   -3.1644    0.0000 C   0  0  0  0  0  0  0  0  0  0  0  0
    8.6000   -4.2469    0.0000 O   0  0  0  0  0  0  0  0  0  0  0  0
    8.6000   -2.0819    0.0000 N   0  0  0  0  0  0  0  0  0  0  0  0
    9.8500   -2.0819    0.0000 C   0  0  0  0  0  0  0  0  0  0  0  0
   10.4750   -0.9993    0.0000 N   0  0  0  0  0  0  0  0  0  0  0  0
   10.4750   -3.1644    0.0000 N   0  0  0  0  0  0  0  0  0  0  0  0
  1  2  2  0  0  0  0
  2  3  1  0  0  0  0
  3  4  2  0  0  0  0
  4  5  1  0  0  0  0
  5  6  2  0  0  0  0
  1  6  1  0  0  0  0
  5  7  1  0  0  0  0
  4  8  1  0  0  0  0
  2  9  1  0  0  0  0
  1 10  1  0  0  0  0
 10 11  2  0  0  0  0
 10 12  1  0  0  0  0
 12 13  2  0  0  0  0
 13 14  1  0  0  0  0
 13 15  1  0  0  0  0
M  END
> <#>
324

> <PLATE>
LAT005

> <ROW>
D

> <COL>
2

> <COORD>
D02

> <LATID>
LAT005D02

> <Supplier>
Sigma

> <Suplier_CAT#>
A-7410

> <Name>
Amiloride

> <Concentration_(mM)>
2.5

> <IC50_(µM)>
inactive

> <Yeast_Active?>
-

> <Pubchem_CID>
16230

$$$$
