
  -ISIS-  08130814242D

 20 21  0  0  0  0  0  0  0  0999 V2000
   -0.8833   -0.0042    0.0000 C   0  0  0  0  0  0  0  0  0  0  0  0
   -0.1000   -0.3792    0.0000 C   0  0  0  0  0  0  0  0  0  0  0  0
   -0.8833    0.9208    0.0000 C   0  0  0  0  0  0  0  0  0  0  0  0
   -1.6958   -0.4792    0.0000 C   0  0  0  0  0  0  0  0  0  0  0  0
   -1.6958    1.3958    0.0000 C   0  0  0  0  0  0  0  0  0  0  0  0
   -2.5000    0.9208    0.0000 C   0  0  0  0  0  0  0  0  0  0  0  0
   -2.5000   -0.0042    0.0000 C   0  0  0  0  0  0  0  0  0  0  0  0
    0.5500   -0.2167    0.0000 C   0  0  0  0  0  0  0  0  0  0  0  0
   -0.1000   -1.2167    0.0000 O   0  0  0  0  0  0  0  0  0  0  0  0
    1.3000   -0.7000    0.0000 C   0  0  0  0  0  0  0  0  0  0  0  0
   -0.2625    1.2958    0.0000 O   0  0  0  0  0  0  0  0  0  0  0  0
    2.7500   -1.5292    0.0000 C   0  0  0  0  0  0  0  0  0  0  0  0
   -3.0958    1.2958    0.0000 O   0  0  0  0  0  0  0  0  0  0  0  0
    3.3500   -1.9542    0.0000 F   0  0  0  0  0  0  0  0  0  0  0  0
    1.3000   -1.5292    0.0000 C   0  0  0  0  0  0  0  0  0  0  0  0
    2.0500   -0.2542    0.0000 C   0  0  0  0  0  0  0  0  0  0  0  0
    2.0500   -1.9500    0.0000 C   0  0  0  0  0  0  0  0  0  0  0  0
    2.7500   -0.7000    0.0000 C   0  0  0  0  0  0  0  0  0  0  0  0
   -3.2125   -0.3167    0.0000 C   0  0  0  0  0  0  0  0  0  0  0  0
   -3.2333   -1.0542    0.0000 C   0  0  0  0  0  0  0  0  0  0  0  0
  2  1  1  0  0  0  0
  3  1  2  0  0  0  0
  4  1  1  0  0  0  0
  5  3  1  0  0  0  0
  6  7  1  0  0  0  0
  7  4  2  0  0  0  0
  8  2  1  0  0  0  0
  9  2  2  0  0  0  0
 10  8  1  0  0  0  0
 11  3  1  0  0  0  0
 12 18  2  0  0  0  0
 13  6  1  0  0  0  0
 14 12  1  0  0  0  0
 15 10  1  0  0  0  0
 16 10  2  0  0  0  0
 17 15  2  0  0  0  0
 18 16  1  0  0  0  0
 19  7  1  0  0  0  0
 20 19  1  0  0  0  0
  5  6  2  0  0  0  0
 12 17  1  0  0  0  0
M  END
> <#>
1276

> <PLATE>
LAT016

> <ROW>
D

> <COL>
11

> <COORD>
D11

> <LATID>
LAT016D11

> <Supplier>
Chembridge

> <Suplier_CAT#>
6665726

> <Name>
Novel

> <Concentration_(mM)>
2.5

> <IC50_(µM)>
68

> <Yeast_Active?>
-

> <Pubchem_CID>
797333

$$$$
