
  -ISIS-  08130814242D

 20 21  0  0  0  0  0  0  0  0999 V2000
    3.2542   -1.3792    0.0000 C   0  0  0  0  0  0  0  0  0  0  0  0
    3.9042   -2.5042    0.0000 N   0  0  0  0  0  0  0  0  0  0  0  0
    1.9542   -1.3792    0.0000 N   0  0  0  0  0  0  0  0  0  0  0  0
    3.9042   -1.7542    0.0000 N   0  0  0  0  0  0  0  0  0  0  0  0
    1.3042   -1.7500    0.0000 C   0  0  0  0  0  0  0  0  0  0  0  0
    3.2542   -0.6292    0.0000 O   0  0  0  0  0  0  0  0  0  0  0  0
    6.5042   -2.5042    0.0000 N   0  0  0  0  0  0  0  0  0  0  0  0
    2.6042   -1.7500    0.0000 C   0  0  0  0  0  0  0  0  0  0  0  0
    4.5542   -2.8792    0.0000 C   0  0  0  0  0  0  0  0  0  0  0  0
    0.6542   -1.3667    0.0000 C   0  0  0  0  0  0  0  0  0  0  0  0
    5.2042   -2.5042    0.0000 C   0  0  0  0  0  0  0  0  0  0  0  0
    5.8542   -2.8792    0.0000 C   0  0  0  0  0  0  0  0  0  0  0  0
    6.5042   -1.7542    0.0000 C   0  0  0  0  0  0  0  0  0  0  0  0
    1.3042   -2.5042    0.0000 C   0  0  0  0  0  0  0  0  0  0  0  0
    0.6542   -0.6167    0.0000 C   0  0  0  0  0  0  0  0  0  0  0  0
    5.2042   -1.7542    0.0000 C   0  0  0  0  0  0  0  0  0  0  0  0
    0.0042   -1.7500    0.0000 C   0  0  0  0  0  0  0  0  0  0  0  0
    5.8542   -1.3792    0.0000 C   0  0  0  0  0  0  0  0  0  0  0  0
    0.6542   -2.8792    0.0000 C   0  0  0  0  0  0  0  0  0  0  0  0
    0.0042   -2.5042    0.0000 C   0  0  0  0  0  0  0  0  0  0  0  0
  2  4  1  0  0  0  0
  3  8  1  0  0  0  0
  4  1  1  0  0  0  0
  5  3  1  0  0  0  0
  6  1  2  0  0  0  0
  7 12  2  0  0  0  0
  8  1  1  0  0  0  0
  9  2  2  0  0  0  0
 10  5  1  0  0  0  0
 11  9  1  0  0  0  0
 12 11  1  0  0  0  0
 13 18  2  0  0  0  0
 14  5  2  0  0  0  0
 15 10  1  0  0  0  0
 16 11  2  0  0  0  0
 17 10  2  0  0  0  0
 18 16  1  0  0  0  0
 19 14  1  0  0  0  0
 20 19  2  0  0  0  0
 20 17  1  0  0  0  0
 13  7  1  0  0  0  0
M  END
> <#>
1652

> <PLATE>
LAT021

> <ROW>
D

> <COL>
8

> <COORD>
D08

> <LATID>
LAT021D08

> <Supplier>
Chembridge

> <Suplier_CAT#>
5529810

> <Name>
Novel

> <Concentration_(mM)>
2.5

> <IC50_(µM)>
>100

> <Yeast_Active?>
-

> <Pubchem_CID>
774698

$$$$
