
  -ISIS-  08130814242D

 22 25  0  0  0  0  0  0  0  0999 V2000
    7.0667   -4.1542    0.0000 C   0  0  1  0  0  0  0  0  0  0  0  0
    7.0667   -4.9792    0.0000 C   0  0  3  0  0  0  0  0  0  0  0  0
    6.3500   -5.3917    0.0000 C   0  0  3  0  0  0  0  0  0  0  0  0
    5.6375   -4.9792    0.0000 C   0  0  3  0  0  0  0  0  0  0  0  0
    4.9167   -5.3917    0.0000 C   0  0  0  0  0  0  0  0  0  0  0  0
    7.8500   -3.9000    0.0000 C   0  0  2  0  0  0  0  0  0  0  0  0
    4.9167   -6.2250    0.0000 C   0  0  0  0  0  0  0  0  0  0  0  0
    8.5750   -3.9292    0.0000 C   0  0  0  0  0  0  0  0  0  0  0  0
    6.3500   -3.7417    0.0000 C   0  0  0  0  0  0  0  0  0  0  0  0
    5.6375   -4.1542    0.0000 C   0  0  0  0  0  0  0  0  0  0  0  0
    7.8500   -5.2375    0.0000 C   0  0  0  0  0  0  0  0  0  0  0  0
    6.3500   -6.2250    0.0000 C   0  0  0  0  0  0  0  0  0  0  0  0
    9.5125   -3.9917    0.0000 C   0  0  0  0  0  0  0  0  0  0  0  0
    4.2042   -4.9792    0.0000 C   0  0  0  0  0  0  0  0  0  0  0  0
    5.6375   -6.6375    0.0000 C   0  0  0  0  0  0  0  0  0  0  0  0
    8.3292   -4.5667    0.0000 C   0  0  0  0  0  0  0  0  0  0  0  0
    4.2042   -6.6375    0.0000 C   0  0  0  0  0  0  0  0  0  0  0  0
    3.4917   -6.2250    0.0000 C   0  0  0  0  0  0  0  0  0  0  0  0
    8.1875   -3.1417    0.0000 O   0  0  0  0  0  0  0  0  0  0  0  0
    3.4917   -5.3917    0.0000 C   0  0  0  0  0  0  0  0  0  0  0  0
    7.0667   -3.3250    0.0000 C   0  0  0  0  0  0  0  0  0  0  0  0
    2.7667   -6.6417    0.0000 O   0  0  0  0  0  0  0  0  0  0  0  0
  2  1  1  0  0  0  0
  3  2  1  0  0  0  0
  4 10  1  0  0  0  0
  5  4  1  0  0  0  0
  6  1  1  0  0  0  0
  7  5  2  0  0  0  0
  6  8  1  6  0  0  0
  9  1  1  0  0  0  0
 10  9  1  0  0  0  0
 11  2  1  0  0  0  0
 12  3  1  0  0  0  0
 13  8  3  0  0  0  0
 14  5  1  0  0  0  0
 15 12  1  0  0  0  0
 16  6  1  0  0  0  0
 17  7  1  0  0  0  0
 18 20  1  0  0  0  0
  6 19  1  1  0  0  0
 20 14  2  0  0  0  0
  1 21  1  1  0  0  0
 22 18  1  0  0  0  0
 11 16  1  0  0  0  0
  3  4  1  0  0  0  0
  7 15  1  0  0  0  0
 17 18  2  0  0  0  0
M  END
> <#>
70

> <PLATE>
LAT001

> <ROW>
F

> <COL>
10

> <COORD>
F10

> <LATID>
LAT001F10

> <Supplier>
Microsource

> <Suplier_CAT#>
01500291

> <Name>
Ethinyl Estradiol

> <Concentration_(mM)>
2.5

> <IC50_(µM)>
69

> <Yeast_Active?>
-

> <Pubchem_CID>
3285

> <Description>
Estrogen, Plus Progestogen As Oral Contraceptive

$$$$
