
  -ISIS-  08130814242D

 17 18  0  0  0  0  0  0  0  0999 V2000
   -1.3625    0.1458    0.0000 S   0  0  0  0  0  0  0  0  0  0  0  0
   -0.5833    0.5958    0.0000 C   0  0  0  0  0  0  0  0  0  0  0  0
   -2.1458    0.5958    0.0000 C   0  0  0  0  0  0  0  0  0  0  0  0
   -0.5833    1.4958    0.0000 C   0  0  0  0  0  0  0  0  0  0  0  0
    0.1875    0.1458    0.0000 C   0  0  0  0  0  0  0  0  0  0  0  0
   -2.1458    1.4958    0.0000 C   0  0  0  0  0  0  0  0  0  0  0  0
    0.9667    0.5958    0.0000 C   0  0  0  0  0  0  0  0  0  0  0  0
    1.7500    0.1458    0.0000 C   0  0  0  0  0  0  0  0  0  0  0  0
    3.3042   -0.7500    0.0000 N   0  0  0  0  0  0  0  0  0  0  0  0
    3.3042    0.1458    0.0000 C   0  0  0  0  0  0  0  0  0  0  0  0
    2.5292    0.5958    0.0000 N   0  0  0  0  0  0  0  0  0  0  0  0
    0.1875   -0.7500    0.0000 O   0  0  0  0  0  0  0  0  0  0  0  0
   -2.9208    0.1458    0.0000 Cl  0  0  0  0  0  0  0  0  0  0  0  0
    4.0875   -1.2000    0.0000 C   0  0  0  0  0  0  0  0  0  0  0  0
    4.0875    0.5958    0.0000 C   0  0  0  0  0  0  0  0  0  0  0  0
    4.8667   -0.7500    0.0000 C   0  0  0  0  0  0  0  0  0  0  0  0
    4.8667    0.1458    0.0000 C   0  0  0  0  0  0  0  0  0  0  0  0
  2  1  1  0  0  0  0
  3  1  1  0  0  0  0
  4  2  2  0  0  0  0
  5  2  1  0  0  0  0
  6  3  2  0  0  0  0
  7  5  1  0  0  0  0
  8  7  2  0  0  0  0
  9 10  1  0  0  0  0
 10 11  1  0  0  0  0
 11  8  1  0  0  0  0
 12  5  2  0  0  0  0
 13  3  1  0  0  0  0
 14  9  2  0  0  0  0
 15 10  2  0  0  0  0
 16 17  2  0  0  0  0
 17 15  1  0  0  0  0
  4  6  1  0  0  0  0
 16 14  1  0  0  0  0
M  END
> <#>
1847

> <PLATE>
LAT024

> <ROW>
G

> <COL>
2

> <COORD>
G02

> <LATID>
LAT024G02

> <Supplier>
Chembridge

> <Suplier_CAT#>
5717878

> <Name>
Novel

> <Sec_Name>
226_G08

> <Concentration_(mM)>
2.5

> <IC50_(µM)>
8

> <Yeast_Active?>
-

> <Pubchem_CID>
744128

$$$$
