
  -ISIS-  08130814242D

 20 21  0  0  0  0  0  0  0  0999 V2000
   -1.7458   -0.3292    0.0000 C   0  0  0  0  0  0  0  0  0  0  0  0
   -0.9458   -0.5042    0.0000 C   0  0  0  0  0  0  0  0  0  0  0  0
    0.4000   -0.0500    0.0000 N   0  0  0  0  0  0  0  0  0  0  0  0
   -0.4000    0.1125    0.0000 N   0  0  0  0  0  0  0  0  0  0  0  0
    0.9167    0.5500    0.0000 C   0  0  0  0  0  0  0  0  0  0  0  0
    1.7167    0.4125    0.0000 C   0  0  0  0  0  0  0  0  0  0  0  0
   -2.3000   -0.8875    0.0000 C   0  0  0  0  0  0  0  0  0  0  0  0
   -0.6833   -1.2667    0.0000 O   0  0  0  0  0  0  0  0  0  0  0  0
    2.7542   -0.5042    0.0000 N   0  0  0  0  0  0  0  0  0  0  0  0
    1.9792   -0.3667    0.0000 C   0  0  0  0  0  0  0  0  0  0  0  0
   -1.9708    0.4500    0.0000 C   0  0  0  0  0  0  0  0  0  0  0  0
   -2.0833   -1.6667    0.0000 O   0  0  0  0  0  0  0  0  0  0  0  0
    2.2167    1.0125    0.0000 C   0  0  0  0  0  0  0  0  0  0  0  0
    3.2792    0.1333    0.0000 C   0  0  0  0  0  0  0  0  0  0  0  0
    0.6542    1.3125    0.0000 C   0  0  0  0  0  0  0  0  0  0  0  0
   -3.0833   -0.6875    0.0000 C   0  0  0  0  0  0  0  0  0  0  0  0
   -2.6458   -2.2500    0.0000 C   0  0  0  0  0  0  0  0  0  0  0  0
    3.0167    0.8708    0.0000 C   0  0  0  0  0  0  0  0  0  0  0  0
   -2.7458    0.6708    0.0000 C   0  0  0  0  0  0  0  0  0  0  0  0
   -3.3000    0.0958    0.0000 C   0  0  0  0  0  0  0  0  0  0  0  0
  2  1  1  0  0  0  0
  3  4  1  0  0  0  0
  4  2  1  0  0  0  0
  5  3  2  0  0  0  0
  6  5  1  0  0  0  0
  7  1  1  0  0  0  0
  8  2  2  0  0  0  0
  9 10  2  0  0  0  0
 10  6  1  0  0  0  0
 11  1  2  0  0  0  0
 12  7  1  0  0  0  0
 13  6  2  0  0  0  0
 14 18  2  0  0  0  0
 15  5  1  0  0  0  0
 16  7  2  0  0  0  0
 17 12  1  0  0  0  0
 18 13  1  0  0  0  0
 19 11  1  0  0  0  0
 20 19  2  0  0  0  0
 16 20  1  0  0  0  0
 14  9  1  0  0  0  0
M  END
> <#>
1678

> <PLATE>
LAT021

> <ROW>
F

> <COL>
11

> <COORD>
F11

> <LATID>
LAT021F11

> <Supplier>
Chembridge

> <Suplier_CAT#>
5684878

> <Name>
Novel

> <Concentration_(mM)>
2.5

> <IC50_(µM)>
>100

> <Yeast_Active?>
-

> <Pubchem_CID>
839899

$$$$
