
  -ISIS-  08130814242D

 20 22  0  0  0  0  0  0  0  0999 V2000
    5.3500   -3.3167    0.0000 C   0  0  0  0  0  0  0  0  0  0  0  0
    4.6375   -3.7375    0.0000 C   0  0  0  0  0  0  0  0  0  0  0  0
    3.9250   -3.3250    0.0000 C   0  0  0  0  0  0  0  0  0  0  0  0
    6.0667   -3.7375    0.0000 O   0  0  0  0  0  0  0  0  0  0  0  0
    5.3542   -2.4917    0.0000 C   0  0  0  0  0  0  0  0  0  0  0  0
    3.9167   -2.5000    0.0000 C   0  0  0  0  0  0  0  0  0  0  0  0
    6.7792   -3.3250    0.0000 C   0  0  0  0  0  0  0  0  0  0  0  0
    6.0667   -2.0792    0.0000 C   0  0  0  0  0  0  0  0  0  0  0  0
    4.6375   -2.0792    0.0000 C   0  0  0  0  0  0  0  0  0  0  0  0
    6.7792   -2.4917    0.0000 C   0  0  0  0  0  0  0  0  0  0  0  0
    3.1417   -3.5792    0.0000 O   0  0  0  0  0  0  0  0  0  0  0  0
    2.6542   -2.9167    0.0000 C   0  0  0  0  0  0  0  0  0  0  0  0
    3.1375   -2.2500    0.0000 C   0  0  0  0  0  0  0  0  0  0  0  0
    7.4917   -3.7375    0.0000 O   0  0  0  0  0  0  0  0  0  0  0  0
    3.2167   -6.2167    0.0000 C   0  0  0  0  0  0  0  0  0  0  0  0
    3.9292   -5.8042    0.0000 C   0  0  0  0  0  0  0  0  0  0  0  0
    4.6417   -4.5625    0.0000 O   0  0  0  0  0  0  0  0  0  0  0  0
    3.9292   -4.9792    0.0000 C   0  0  0  0  0  0  0  0  0  0  0  0
    3.2167   -7.0417    0.0000 C   0  0  0  0  0  0  0  0  0  0  0  0
    2.5000   -5.8042    0.0000 C   0  0  0  0  0  0  0  0  0  0  0  0
  2  1  2  0  0  0  0
  3  2  1  0  0  0  0
  4  1  1  0  0  0  0
  5  1  1  0  0  0  0
  6  9  1  0  0  0  0
  7  4  1  0  0  0  0
  8  5  1  0  0  0  0
  9  5  2  0  0  0  0
 10  8  2  0  0  0  0
 11  3  1  0  0  0  0
 12 11  1  0  0  0  0
 13  6  1  0  0  0  0
 14  7  2  0  0  0  0
 15 16  2  0  0  0  0
 16 18  1  0  0  0  0
 17  2  1  0  0  0  0
 18 17  1  0  0  0  0
 19 15  1  0  0  0  0
 20 15  1  0  0  0  0
  3  6  2  0  0  0  0
  7 10  1  0  0  0  0
 13 12  2  0  0  0  0
M  END
> <#>
11

> <PLATE>
LAT001

> <ROW>
C

> <COL>
3

> <COORD>
C03

> <LATID>
LAT001C03

> <Supplier>
Microsource

> <Suplier_CAT#>
00102076

> <Name>
Imperatorin

> <Concentration_(mM)>
2.5

> <IC50_(µM)>
100

> <Yeast_Active?>
-

> <Pubchem_CID>
10212

> <Description>
Anticonvulsant, Antiinflammatory

> <Source>
Natural Product; ex Angelica & other Umbelliferaceae.

$$$$
