
  -ISIS-  08130814242D

 24 26  0  0  0  0  0  0  0  0999 V2000
   -3.1500    1.1833    0.0000 C   0  0  0  0  0  0  0  0  0  0  0  0
   -3.5500    1.4208    0.0000 C   0  0  0  0  0  0  0  0  0  0  0  0
   -3.1500    0.6833    0.0000 C   0  0  0  0  0  0  0  0  0  0  0  0
   -3.5500    0.4625    0.0000 N   0  0  0  0  0  0  0  0  0  0  0  0
   -3.9583    1.1833    0.0000 C   0  0  0  0  0  0  0  0  0  0  0  0
   -3.9583    0.7000    0.0000 C   0  0  0  0  0  0  0  0  0  0  0  0
   -2.7333    1.4625    0.0000 C   0  0  0  0  0  0  0  0  0  0  0  0
   -2.3125    1.2458    0.0000 C   0  0  0  0  0  0  0  0  0  0  0  0
   -1.9125    1.5000    0.0000 N   0  0  0  0  0  0  0  0  0  0  0  0
   -2.7500    0.4000    0.0000 O   0  0  0  0  0  0  0  0  0  0  0  0
   -2.2958    0.7625    0.0000 O   0  0  0  0  0  0  0  0  0  0  0  0
   -3.5333    1.9000    0.0000 O   0  0  0  0  0  0  0  0  0  0  0  0
   -4.3708    1.4208    0.0000 C   0  0  0  0  0  0  0  0  0  0  0  0
   -1.4958    1.2833    0.0000 C   0  0  3  0  0  0  0  0  0  0  0  0
   -4.3708    0.4625    0.0000 C   0  0  0  0  0  0  0  0  0  0  0  0
   -1.5708    0.8208    0.0000 C   0  0  0  0  0  0  0  0  0  0  0  0
   -1.0958    1.5625    0.0000 C   0  0  0  0  0  0  0  0  0  0  0  0
   -4.7708    1.1833    0.0000 C   0  0  0  0  0  0  0  0  0  0  0  0
   -4.7708    0.6833    0.0000 C   0  0  0  0  0  0  0  0  0  0  0  0
   -0.6333    1.4833    0.0000 C   0  0  0  0  0  0  0  0  0  0  0  0
   -1.2958    0.4458    0.0000 C   0  0  0  0  0  0  0  0  0  0  0  0
   -0.8125    0.3833    0.0000 C   0  0  0  0  0  0  0  0  0  0  0  0
   -0.3500    1.1000    0.0000 C   0  0  0  0  0  0  0  0  0  0  0  0
   -0.4333    0.6208    0.0000 C   0  0  0  0  0  0  0  0  0  0  0  0
  2  1  2  0  0  0  0
  3  1  1  0  0  0  0
  4  3  1  0  0  0  0
  5  2  1  0  0  0  0
  6  4  1  0  0  0  0
  7  1  1  0  0  0  0
  8  7  1  0  0  0  0
  9  8  1  0  0  0  0
 10  3  2  0  0  0  0
 11  8  2  0  0  0  0
 12  2  1  0  0  0  0
 13  5  1  0  0  0  0
 14  9  1  0  0  0  0
 15  6  1  0  0  0  0
 16 14  1  0  0  0  0
 17 14  1  0  0  0  0
 18 13  2  0  0  0  0
 19 15  2  0  0  0  0
 20 17  1  0  0  0  0
 21 16  1  0  0  0  0
 22 21  1  0  0  0  0
 23 20  1  0  0  0  0
 24 23  1  0  0  0  0
  6  5  2  0  0  0  0
 19 18  1  0  0  0  0
 22 24  1  0  0  0  0
M  END
> <#>
1936

> <PLATE>
LAT025

> <ROW>
H

> <COL>
3

> <COORD>
H03

> <LATID>
LAT025H03

> <Supplier>
Chembridge

> <Suplier_CAT#>
5659683

> <Name>
Novel

> <Sec_Name>
205_A04

> <Concentration_(mM)>
2.5

> <IC50_(µM)>
inactive

> <Yeast_Active?>
-

> <Pubchem_CID>
NULL

$$$$
