
  -ISIS-  08130814242D

 21 23  0  0  0  0  0  0  0  0999 V2000
   -3.3625    1.6333    0.0000 C   0  0  3  0  0  0  0  0  0  0  0  0
   -3.8000    1.3708    0.0000 C   0  0  0  0  0  0  0  0  0  0  0  0
   -3.8208    0.8708    0.0000 N   0  0  3  0  0  0  0  0  0  0  0  0
   -4.1625    0.1500    0.0000 N   0  0  0  0  0  0  0  0  0  0  0  0
   -3.1000    2.0708    0.0000 O   0  0  0  0  0  0  0  0  0  0  0  0
   -3.8458    1.7333    0.0000 O   0  0  0  0  0  0  0  0  0  0  0  0
   -3.4625    0.5333    0.0000 N   0  0  0  0  0  0  0  0  0  0  0  0
   -3.6833    0.0958    0.0000 C   0  0  0  0  0  0  0  0  0  0  0  0
   -4.2708    0.6333    0.0000 C   0  0  0  0  0  0  0  0  0  0  0  0
   -2.9208    1.3708    0.0000 C   0  0  0  0  0  0  0  0  0  0  0  0
   -2.4833    1.6333    0.0000 C   0  0  0  0  0  0  0  0  0  0  0  0
   -2.9208    0.8708    0.0000 C   0  0  0  0  0  0  0  0  0  0  0  0
   -3.9000    2.2333    0.0000 C   0  0  0  0  0  0  0  0  0  0  0  0
   -3.4458    2.4333    0.0000 C   0  0  3  0  0  0  0  0  0  0  0  0
   -2.0458    1.3708    0.0000 C   0  0  0  0  0  0  0  0  0  0  0  0
   -2.4833    0.6125    0.0000 C   0  0  0  0  0  0  0  0  0  0  0  0
   -2.0458    0.8708    0.0000 C   0  0  0  0  0  0  0  0  0  0  0  0
   -3.3625    2.9333    0.0000 C   0  0  0  0  0  0  0  0  0  0  0  0
   -1.5833    0.6333    0.0000 C   0  0  0  0  0  0  0  0  0  0  0  0
   -3.7625    3.2500    0.0000 C   0  0  0  0  0  0  0  0  0  0  0  0
   -3.6833    3.7500    0.0000 C   0  0  0  0  0  0  0  0  0  0  0  0
  2  1  1  0  0  0  0
  3  2  1  0  0  0  0
  4  9  2  0  0  0  0
  5  1  1  0  0  0  0
  6  1  1  0  0  0  0
  7  3  1  0  0  0  0
  8  7  2  0  0  0  0
  9  3  1  0  0  0  0
 10  1  1  0  0  0  0
 11 10  1  0  0  0  0
 12 10  2  0  0  0  0
 13  6  1  0  0  0  0
 14  5  1  0  0  0  0
 15 11  2  0  0  0  0
 16 12  1  0  0  0  0
 17 16  2  0  0  0  0
 18 14  1  0  0  0  0
 19 17  1  0  0  0  0
 20 18  1  0  0  0  0
 21 20  1  0  0  0  0
 13 14  1  0  0  0  0
 17 15  1  0  0  0  0
  4  8  1  0  0  0  0
M  END
> <#>
1892

> <PLATE>
LAT024

> <ROW>
D

> <COL>
8

> <COORD>
D08

> <LATID>
LAT024D08

> <Supplier>
Chembridge

> <Suplier_CAT#>
5526713

> <Name>
S001 C09

> <Concentration_(mM)>
2.5

> <IC50_(µM)>
0.47

> <Yeast_Active?>
+

> <Pubchem_CID>
682063

$$$$
