
  -ISIS-  08130814242D

 31 34  0  0  0  0  0  0  0  0999 V2000
    4.9750    1.9333    0.0000 N   0  0  3  0  0  0  0  0  0  0  0  0
    5.2500    2.7083    0.0000 C   0  0  0  0  0  0  0  0  0  0  0  0
    6.0667    2.7083    0.0000 N   0  0  0  0  0  0  0  0  0  0  0  0
    5.6292    1.4333    0.0000 C   0  0  0  0  0  0  0  0  0  0  0  0
    6.3042    1.9083    0.0000 N   0  0  0  0  0  0  0  0  0  0  0  0
    4.1917    1.6958    0.0000 C   0  0  0  0  0  0  0  0  0  0  0  0
    5.6125    0.6083    0.0000 S   0  0  0  0  0  0  0  0  0  0  0  0
    2.9292   -0.1167    0.0000 N   0  0  0  0  0  0  0  0  0  0  0  0
    3.6542    0.2958    0.0000 C   0  0  0  0  0  0  0  0  0  0  0  0
    4.7792    3.3958    0.0000 C   0  0  0  0  0  0  0  0  0  0  0  0
    2.2167    0.3000    0.0000 C   0  0  3  0  0  0  0  0  0  0  0  0
    3.6542    1.1333    0.0000 O   0  0  0  0  0  0  0  0  0  0  0  0
    3.5917    2.2500    0.0000 C   0  0  0  0  0  0  0  0  0  0  0  0
    4.0125    0.8958    0.0000 C   0  0  0  0  0  0  0  0  0  0  0  0
    4.3667   -0.1042    0.0000 C   0  0  0  0  0  0  0  0  0  0  0  0
    1.5042   -0.1125    0.0000 C   0  0  0  0  0  0  0  0  0  0  0  0
    3.2292    0.6500    0.0000 C   0  0  0  0  0  0  0  0  0  0  0  0
    2.8042    2.0083    0.0000 C   0  0  0  0  0  0  0  0  0  0  0  0
    2.6250    1.2083    0.0000 C   0  0  0  0  0  0  0  0  0  0  0  0
    2.2167    1.1250    0.0000 C   0  0  0  0  0  0  0  0  0  0  0  0
    3.9625    3.3333    0.0000 C   0  0  0  0  0  0  0  0  0  0  0  0
    5.1417    4.1292    0.0000 C   0  0  0  0  0  0  0  0  0  0  0  0
    0.7917    0.3083    0.0000 C   0  0  0  0  0  0  0  0  0  0  0  0
    1.5042   -0.9292    0.0000 C   0  0  0  0  0  0  0  0  0  0  0  0
    1.8417    0.9708    0.0000 C   0  0  0  0  0  0  0  0  0  0  0  0
    3.4917    4.0000    0.0000 C   0  0  0  0  0  0  0  0  0  0  0  0
    0.7917   -1.3417    0.0000 C   0  0  0  0  0  0  0  0  0  0  0  0
    0.0750   -0.1042    0.0000 C   0  0  0  0  0  0  0  0  0  0  0  0
    4.6750    4.8125    0.0000 C   0  0  0  0  0  0  0  0  0  0  0  0
    0.0750   -0.9292    0.0000 C   0  0  0  0  0  0  0  0  0  0  0  0
    3.8500    4.7500    0.0000 C   0  0  0  0  0  0  0  0  0  0  0  0
  2  1  1  0  0  0  0
  3  2  2  0  0  0  0
  4  1  1  0  0  0  0
  5  4  2  0  0  0  0
  6  1  1  0  0  0  0
  7  4  1  0  0  0  0
  8  9  1  0  0  0  0
  9 15  1  0  0  0  0
 10  2  1  0  0  0  0
 11  8  1  0  0  0  0
 12  9  2  0  0  0  0
 13  6  2  0  0  0  0
 14  6  1  0  0  0  0
 15  7  1  0  0  0  0
 16 11  1  0  0  0  0
 17 14  2  0  0  0  0
 18 13  1  0  0  0  0
 19 17  1  0  0  0  0
 20 11  1  0  0  0  0
 21 10  1  0  0  0  0
 22 10  2  0  0  0  0
 23 16  2  0  0  0  0
 24 16  1  0  0  0  0
 25 19  1  0  0  0  0
 26 21  2  0  0  0  0
 27 24  2  0  0  0  0
 28 23  1  0  0  0  0
 29 22  1  0  0  0  0
 30 27  1  0  0  0  0
 31 29  2  0  0  0  0
  5  3  1  0  0  0  0
 18 19  2  0  0  0  0
 26 31  1  0  0  0  0
 28 30  2  0  0  0  0
M  END
> <#>
1739

> <PLATE>
LAT022

> <ROW>
C

> <COL>
9

> <COORD>
C09

> <LATID>
LAT022C09

> <Supplier>
Chembridge

> <Suplier_CAT#>
7784272

> <Name>
Novel

> <Concentration_(mM)>
2.5

> <IC50_(µM)>
inactive

> <Yeast_Active?>
-

> <Pubchem_CID>
1294897

$$$$
