
  -ISIS-  08130814242D

 20 21  0  0  0  0  0  0  0  0999 V2000
   -1.7208   -2.2375    0.0000 N   0  3  0  0  0  0  0  0  0  0  0  0
   -1.7625   -0.6792    0.0000 C   0  0  0  0  0  0  0  0  0  0  0  0
   -2.2000   -1.4542    0.0000 C   0  0  0  0  0  0  0  0  0  0  0  0
   -0.8625   -0.7000    0.0000 C   0  0  0  0  0  0  0  0  0  0  0  0
   -2.1833   -3.0167    0.0000 O   0  5  0  0  0  0  0  0  0  0  0  0
   -0.8208   -2.2375    0.0000 O   0  0  0  0  0  0  0  0  0  0  0  0
    1.8375   -2.2542    0.0000 C   0  0  0  0  0  0  0  0  0  0  0  0
   -0.4000    0.0833    0.0000 O   0  0  0  0  0  0  0  0  0  0  0  0
   -0.4208   -1.4792    0.0000 N   0  0  0  0  0  0  0  0  0  0  0  0
    2.2792   -1.4792    0.0000 C   0  0  0  0  0  0  0  0  0  0  0  0
   -2.2208    0.1208    0.0000 C   0  0  0  0  0  0  0  0  0  0  0  0
    0.5000   -1.4792    0.0000 C   0  0  0  0  0  0  0  0  0  0  0  0
   -3.1000   -1.4542    0.0000 C   0  0  0  0  0  0  0  0  0  0  0  0
    0.9375   -2.2542    0.0000 C   0  0  0  0  0  0  0  0  0  0  0  0
    2.3000   -3.0167    0.0000 C   0  0  0  0  0  0  0  0  0  0  0  0
    3.1792   -1.4542    0.0000 C   0  0  0  0  0  0  0  0  0  0  0  0
   -3.1208    0.1000    0.0000 C   0  0  0  0  0  0  0  0  0  0  0  0
   -3.5625   -0.6792    0.0000 C   0  0  0  0  0  0  0  0  0  0  0  0
    3.2000   -3.0167    0.0000 C   0  0  0  0  0  0  0  0  0  0  0  0
    3.6375   -2.2542    0.0000 C   0  0  0  0  0  0  0  0  0  0  0  0
  2  3  1  0  0  0  0
  3  1  1  0  0  0  0
  4  2  1  0  0  0  0
  5  1  1  0  0  0  0
  6  1  2  0  0  0  0
  7 14  1  0  0  0  0
  8  4  2  0  0  0  0
  9  4  1  0  0  0  0
 10  7  2  0  0  0  0
 11  2  2  0  0  0  0
 12  9  1  0  0  0  0
 13  3  2  0  0  0  0
 14 12  1  0  0  0  0
 15  7  1  0  0  0  0
 16 10  1  0  0  0  0
 17 18  2  0  0  0  0
 18 13  1  0  0  0  0
 19 15  1  0  0  0  0
 20 19  1  0  0  0  0
 17 11  1  0  0  0  0
 20 16  1  0  0  0  0
M  CHG  2   1   1   5  -1
M  END
> <#>
1085

> <PLATE>
LAT014

> <ROW>
E

> <COL>
7

> <COORD>
E07

> <LATID>
LAT014E07

> <Supplier>
Chembridge

> <Suplier_CAT#>
5690312

> <Name>
Novel

> <Concentration_(mM)>
2.5

> <IC50_(µM)>
>100

> <Yeast_Active?>
-

> <Pubchem_CID>
790941

$$$$
