
  -ISIS-  08130814242D

 21 22  0  0  0  0  0  0  0  0999 V2000
    0.1931    1.1793    0.0000 C   0  0  0  0  0  0  0  0  0  0  0  0
    0.9724    0.7310    0.0000 C   0  0  0  0  0  0  0  0  0  0  0  0
    0.1931    2.0655    0.0000 C   0  0  0  0  0  0  0  0  0  0  0  0
   -0.5897    0.7172    0.0000 O   0  0  0  0  0  0  0  0  0  0  0  0
    1.7483    1.1793    0.0000 C   0  0  0  0  0  0  0  0  0  0  0  0
    0.9724    2.5172    0.0000 C   0  0  0  0  0  0  0  0  0  0  0  0
   -1.3759    1.1621    0.0000 C   0  0  0  0  0  0  0  0  0  0  0  0
    1.7483    2.0655    0.0000 C   0  0  0  0  0  0  0  0  0  0  0  0
    2.5310    0.7379    0.0000 C   0  0  0  0  0  0  0  0  0  0  0  0
   -2.1414    0.7172    0.0000 C   0  0  0  0  0  0  0  0  0  0  0  0
    2.5310    2.5138    0.0000 Cl  0  0  0  0  0  0  0  0  0  0  0  0
   -2.1414   -0.1828    0.0000 N   0  0  0  0  0  0  0  0  0  0  0  0
   -2.9207    1.1621    0.0000 O   0  0  0  0  0  0  0  0  0  0  0  0
   -1.3759   -0.6207    0.0000 N   0  0  0  0  0  0  0  0  0  0  0  0
   -1.3759   -1.5138    0.0000 C   0  0  0  0  0  0  0  0  0  0  0  0
   -0.6034   -1.9621    0.0000 C   0  0  0  0  0  0  0  0  0  0  0  0
   -0.6034   -2.8483    0.0000 C   0  0  0  0  0  0  0  0  0  0  0  0
    0.1724   -1.5138    0.0000 C   0  0  0  0  0  0  0  0  0  0  0  0
    0.1724   -3.3000    0.0000 C   0  0  0  0  0  0  0  0  0  0  0  0
    0.9483   -1.9621    0.0000 N   0  0  0  0  0  0  0  0  0  0  0  0
    0.9483   -2.8483    0.0000 C   0  0  0  0  0  0  0  0  0  0  0  0
  1  2  2  0  0  0  0
  1  3  1  0  0  0  0
  1  4  1  0  0  0  0
  2  5  1  0  0  0  0
  3  6  2  0  0  0  0
  4  7  1  0  0  0  0
  5  8  2  0  0  0  0
  5  9  1  0  0  0  0
  7 10  1  0  0  0  0
  8 11  1  0  0  0  0
 10 12  1  0  0  0  0
 10 13  2  0  0  0  0
 12 14  1  0  0  0  0
 14 15  2  0  0  0  0
 15 16  1  0  0  0  0
 16 17  1  0  0  0  0
 16 18  2  0  0  0  0
 17 19  2  0  0  0  0
 18 20  1  0  0  0  0
 19 21  1  0  0  0  0
  6  8  1  0  0  0  0
 20 21  2  0  0  0  0
M  END
> <#>
1866

> <PLATE>
LAT024

> <ROW>
B

> <COL>
5

> <COORD>
B05

> <LATID>
LAT024B05

> <Supplier>
Asinex

> <Suplier_CAT#>
BAS 00229628

> <Name>
Novel

> <Concentration_(mM)>
2.5

> <IC50_(µM)>
inactive

> <Yeast_Active?>
-

> <Pubchem_CID>
770906

$$$$
