
  -ISIS-  08130814242D

 30 33  0  0  0  0  0  0  0  0999 V2000
    9.8212   -2.6796    0.0000 C   0  0  0  0  0  0  0  0  0  0  0  0
    9.1962   -1.5971    0.0000 O   0  0  0  0  0  0  0  0  0  0  0  0
    7.9462   -1.5971    0.0000 C   0  0  0  0  0  0  0  0  0  0  0  0
    7.3212   -0.5146    0.0000 C   0  0  0  0  0  0  0  0  0  0  0  0
    6.0712   -0.5146    0.0000 C   0  0  0  0  0  0  0  0  0  0  0  0
    5.4462    0.5679    0.0000 C   0  0  0  0  0  0  0  0  0  0  0  0
    4.1962    0.5679    0.0000 N   0  3  0  0  0  0  0  0  0  0  0  0
    3.5712   -0.5146    0.0000 C   0  0  0  0  0  0  0  0  0  0  0  0
    4.1962   -1.5971    0.0000 C   0  0  0  0  0  0  0  0  0  0  0  0
    5.4462   -1.5971    0.0000 C   0  0  0  0  0  0  0  0  0  0  0  0
    6.0712   -2.6796    0.0000 C   0  0  0  0  0  0  0  0  0  0  0  0
    7.3212   -2.6796    0.0000 C   0  0  0  0  0  0  0  0  0  0  0  0
    2.3212   -0.5146    0.0000 C   0  0  0  0  0  0  0  0  0  0  0  0
    1.6962   -1.5971    0.0000 C   0  0  0  0  0  0  0  0  0  0  0  0
    0.4462   -1.5971    0.0000 C   0  0  0  0  0  0  0  0  0  0  0  0
   -0.1788   -0.5146    0.0000 C   0  0  0  0  0  0  0  0  0  0  0  0
    0.4462    0.5679    0.0000 C   0  0  0  0  0  0  0  0  0  0  0  0
    1.6962    0.5679    0.0000 C   0  0  0  0  0  0  0  0  0  0  0  0
    2.3212    1.6505    0.0000 C   0  0  0  0  0  0  0  0  0  0  0  0
    3.5712    1.6505    0.0000 C   0  0  0  0  0  0  0  0  0  0  0  0
   -1.4015   -0.7745    0.0000 O   0  0  0  0  0  0  0  0  0  0  0  0
   -1.5321   -2.0176    0.0000 C   0  0  0  0  0  0  0  0  0  0  0  0
   -0.3902   -2.5260    0.0000 O   0  0  0  0  0  0  0  0  0  0  0  0
    7.9462    0.5679    0.0000 O   0  0  0  0  0  0  0  0  0  0  0  0
    9.1962    0.5679    0.0000 C   0  0  0  0  0  0  0  0  0  0  0  0
    4.0929   -6.4296    0.0000 O   0  0  0  0  0  0  0  0  0  0  0  0
    4.0929   -5.1796    0.0000 S   0  0  3  0  0  0  0  0  0  0  0  0
    2.8429   -5.1796    0.0000 O   0  0  0  0  0  0  0  0  0  0  0  0
    5.3429   -5.1796    0.0000 O   0  0  0  0  0  0  0  0  0  0  0  0
    4.0929   -3.9296    0.0000 O   0  0  0  0  0  0  0  0  0  0  0  0
  4  5  1  0  0  0  0
  5  6  2  0  0  0  0
  6  7  1  0  0  0  0
  7  8  2  0  0  0  0
  8  9  1  0  0  0  0
  9 10  2  0  0  0  0
  5 10  1  0  0  0  0
 10 11  1  0  0  0  0
 11 12  2  0  0  0  0
  3 12  1  0  0  0  0
  8 13  1  0  0  0  0
 13 14  2  0  0  0  0
 14 15  1  0  0  0  0
 15 16  2  0  0  0  0
 16 17  1  0  0  0  0
 17 18  2  0  0  0  0
 13 18  1  0  0  0  0
 18 19  1  0  0  0  0
 19 20  1  0  0  0  0
  7 20  1  0  0  0  0
 16 21  1  0  0  0  0
 21 22  1  0  0  0  0
 22 23  1  0  0  0  0
 15 23  1  0  0  0  0
  4 24  1  0  0  0  0
 24 25  1  0  0  0  0
  1  2  1  0  0  0  0
  2  3  1  0  0  0  0
  3  4  2  0  0  0  0
 26 27  1  0  0  0  0
 27 28  2  0  0  0  0
 27 29  2  0  0  0  0
 27 30  1  0  0  0  0
M  CHG  1   7   1
M  END
> <#>
303

> <PLATE>
LAT004

> <ROW>
G

> <COL>
9

> <COORD>
G09

> <LATID>
LAT004G09

> <Supplier>
Sigma

> <Suplier_CAT#>
B-3376

> <Name>
Berberine Sulfate

> <Concentration_(mM)>
2.5

> <IC50_(µM)>
62

> <Yeast_Active?>
-

> <Pubchem_CID>
9424

$$$$
