
  -ISIS-  08130814242D

 21 23  0  0  0  0  0  0  0  0999 V2000
   -1.1625    1.0333    0.0000 C   0  0  0  0  0  0  0  0  0  0  0  0
   -1.9458    1.4958    0.0000 C   0  0  0  0  0  0  0  0  0  0  0  0
   -2.7208    1.0333    0.0000 C   0  0  0  0  0  0  0  0  0  0  0  0
   -1.1625    0.1333    0.0000 C   0  0  0  0  0  0  0  0  0  0  0  0
   -0.3625    1.5125    0.0000 C   0  0  0  0  0  0  0  0  0  0  0  0
   -1.9458   -0.3292    0.0000 O   0  0  0  0  0  0  0  0  0  0  0  0
   -2.7208    0.1333    0.0000 C   0  0  0  0  0  0  0  0  0  0  0  0
    0.4167    1.0500    0.0000 C   0  0  0  0  0  0  0  0  0  0  0  0
   -3.5000    1.4958    0.0000 C   0  0  0  0  0  0  0  0  0  0  0  0
   -1.9458    2.3958    0.0000 O   0  0  0  0  0  0  0  0  0  0  0  0
   -0.3625    2.4333    0.0000 O   0  0  0  0  0  0  0  0  0  0  0  0
   -3.5000   -0.3292    0.0000 C   0  0  0  0  0  0  0  0  0  0  0  0
    1.2000    1.5125    0.0000 C   0  0  0  0  0  0  0  0  0  0  0  0
    0.4167    0.1500    0.0000 C   0  0  0  0  0  0  0  0  0  0  0  0
   -4.2833    1.0333    0.0000 C   0  0  0  0  0  0  0  0  0  0  0  0
    1.9792    0.1500    0.0000 C   0  0  0  0  0  0  0  0  0  0  0  0
   -4.2833    0.1333    0.0000 C   0  0  0  0  0  0  0  0  0  0  0  0
    1.2000   -0.3042    0.0000 C   0  0  0  0  0  0  0  0  0  0  0  0
    1.9792    1.0500    0.0000 C   0  0  0  0  0  0  0  0  0  0  0  0
    2.7542   -0.2875    0.0000 Cl  0  0  0  0  0  0  0  0  0  0  0  0
   -5.0625    1.4708    0.0000 C   0  0  0  0  0  0  0  0  0  0  0  0
  2  1  1  0  0  0  0
  3  2  1  0  0  0  0
  4  1  2  0  0  0  0
  5  1  1  0  0  0  0
  6  4  1  0  0  0  0
  7  6  1  0  0  0  0
  8  5  1  0  0  0  0
  9  3  1  0  0  0  0
 10  2  2  0  0  0  0
 11  5  2  0  0  0  0
 12  7  1  0  0  0  0
 13  8  2  0  0  0  0
 14  8  1  0  0  0  0
 15  9  2  0  0  0  0
 16 18  1  0  0  0  0
 17 12  2  0  0  0  0
 18 14  2  0  0  0  0
 19 13  1  0  0  0  0
 20 16  1  0  0  0  0
 21 15  1  0  0  0  0
  7  3  2  0  0  0  0
 19 16  2  0  0  0  0
 17 15  1  0  0  0  0
M  END
> <#>
1887

> <PLATE>
LAT024

> <ROW>
G

> <COL>
7

> <COORD>
G07

> <LATID>
LAT024G07

> <Supplier>
Chembridge

> <Suplier_CAT#>
5472739

> <Name>
S001 A11

> <Sec_Name>
137_D06

> <Concentration_(mM)>
2.5

> <IC50_(µM)>
inactive

> <Yeast_Active?>
-

> <Pubchem_CID>
3472327

$$$$
