
  -ISIS-  08130814242D

 27 29  0  0  0  0  0  0  0  0999 V2000
   -0.6625    0.0333    0.0000 C   0  0  0  0  0  0  0  0  0  0  0  0
   -1.3625    0.4500    0.0000 C   0  0  0  0  0  0  0  0  0  0  0  0
    3.5167   -0.7500    0.0000 C   0  0  0  0  0  0  0  0  0  0  0  0
    3.5167    0.0500    0.0000 C   0  0  0  0  0  0  0  0  0  0  0  0
    2.8167   -1.1500    0.0000 C   0  0  0  0  0  0  0  0  0  0  0  0
   -2.0625    0.0333    0.0000 C   0  0  0  0  0  0  0  0  0  0  0  0
    0.0542    0.4500    0.0000 C   0  0  0  0  0  0  0  0  0  0  0  0
    0.7375    0.0500    0.0000 C   0  0  0  0  0  0  0  0  0  0  0  0
   -0.6625   -0.7667    0.0000 C   0  0  0  0  0  0  0  0  0  0  0  0
    1.4375    0.4500    0.0000 C   0  0  0  0  0  0  0  0  0  0  0  0
    2.1292    0.0500    0.0000 C   0  0  0  0  0  0  0  0  0  0  0  0
    2.8167    0.4500    0.0000 C   0  0  0  0  0  0  0  0  0  0  0  0
    2.1292   -0.7500    0.0000 C   0  0  0  0  0  0  0  0  0  0  0  0
   -2.0625   -0.7667    0.0000 C   0  0  0  0  0  0  0  0  0  0  0  0
   -1.3625   -1.1667    0.0000 C   0  0  0  0  0  0  0  0  0  0  0  0
    0.0542    1.2500    0.0000 O   0  0  0  0  0  0  0  0  0  0  0  0
   -1.3625    1.2500    0.0000 O   0  0  0  0  0  0  0  0  0  0  0  0
    4.2375   -1.1667    0.0000 O   0  0  0  0  0  0  0  0  0  0  0  0
    4.2375    0.4708    0.0000 O   0  0  0  0  0  0  0  0  0  0  0  0
    2.8167   -1.9500    0.0000 O   0  0  0  0  0  0  0  0  0  0  0  0
   -2.7458    0.4500    0.0000 C   0  0  0  0  0  0  0  0  0  0  0  0
   -2.7458   -1.1667    0.0000 C   0  0  0  0  0  0  0  0  0  0  0  0
    4.9167   -0.7667    0.0000 C   0  0  0  0  0  0  0  0  0  0  0  0
    4.9167    0.0500    0.0000 C   0  0  0  0  0  0  0  0  0  0  0  0
    2.1292   -2.3500    0.0000 C   0  0  0  0  0  0  0  0  0  0  0  0
   -3.4458    0.0333    0.0000 C   0  0  0  0  0  0  0  0  0  0  0  0
   -3.4458   -0.7667    0.0000 C   0  0  0  0  0  0  0  0  0  0  0  0
  2  1  1  0  0  0  0
  3  5  2  0  0  0  0
  4 12  2  0  0  0  0
  5 13  1  0  0  0  0
  6  2  2  0  0  0  0
  7  1  1  0  0  0  0
  8  7  1  0  0  0  0
  9  1  2  0  0  0  0
 10  8  2  0  0  0  0
 11 10  1  0  0  0  0
 12 11  1  0  0  0  0
 13 11  2  0  0  0  0
 14 15  2  0  0  0  0
 15  9  1  0  0  0  0
 16  7  2  0  0  0  0
 17  2  1  0  0  0  0
 18  3  1  0  0  0  0
 19  4  1  0  0  0  0
 20  5  1  0  0  0  0
 21  6  1  0  0  0  0
 22 14  1  0  0  0  0
 23 18  1  0  0  0  0
 24 19  1  0  0  0  0
 25 20  1  0  0  0  0
 26 21  2  0  0  0  0
 27 22  2  0  0  0  0
 14  6  1  0  0  0  0
 27 26  1  0  0  0  0
  3  4  1  0  0  0  0
M  END
> <#>
1247

> <PLATE>
LAT016

> <ROW>
G

> <COL>
7

> <COORD>
G07

> <LATID>
LAT016G07

> <Supplier>
Chembridge

> <Suplier_CAT#>
6150227

> <Name>
Novel

> <Concentration_(mM)>
2.5

> <IC50_(µM)>
>100

> <Yeast_Active?>
-

> <Pubchem_CID>
2888273

$$$$
