
  -ISIS-  08130814242D

 20 21  0  0  0  0  0  0  0  0999 V2000
    1.5500   -0.6792    0.0000 C   0  0  0  0  0  0  0  0  0  0  0  0
    0.5875   -0.6792    0.0000 C   0  0  0  0  0  0  0  0  0  0  0  0
    2.0042   -1.5000    0.0000 C   0  0  0  0  0  0  0  0  0  0  0  0
   -0.8333    0.1458    0.0000 N   0  0  0  0  0  0  0  0  0  0  0  0
    0.1292    0.1458    0.0000 N   0  0  0  0  0  0  0  0  0  0  0  0
    2.0042    0.1458    0.0000 C   0  0  0  0  0  0  0  0  0  0  0  0
    2.9667   -1.5000    0.0000 C   0  0  0  0  0  0  0  0  0  0  0  0
   -1.3125    0.9625    0.0000 C   0  0  0  0  0  0  0  0  0  0  0  0
   -2.2500    0.9625    0.0000 C   0  0  0  0  0  0  0  0  0  0  0  0
    0.1292   -1.5000    0.0000 O   0  0  0  0  0  0  0  0  0  0  0  0
   -3.6708    0.1458    0.0000 N   0  0  0  0  0  0  0  0  0  0  0  0
    3.4292   -0.6792    0.0000 C   0  0  0  0  0  0  0  0  0  0  0  0
    1.6667   -2.1042    0.0000 O   0  0  0  0  0  0  0  0  0  0  0  0
    2.9667    0.1458    0.0000 C   0  0  0  0  0  0  0  0  0  0  0  0
   -2.7333    0.1458    0.0000 C   0  0  0  0  0  0  0  0  0  0  0  0
    4.2375   -0.7000    0.0000 O   0  0  0  0  0  0  0  0  0  0  0  0
   -2.7333    1.7833    0.0000 C   0  0  0  0  0  0  0  0  0  0  0  0
   -4.1583    0.9625    0.0000 C   0  0  0  0  0  0  0  0  0  0  0  0
   -0.8333    1.7833    0.0000 C   0  0  0  0  0  0  0  0  0  0  0  0
   -3.6708    1.7833    0.0000 C   0  0  0  0  0  0  0  0  0  0  0  0
  2  1  1  0  0  0  0
  3  1  1  0  0  0  0
  4  5  1  0  0  0  0
  5  2  1  0  0  0  0
  6  1  2  0  0  0  0
  7  3  2  0  0  0  0
  8  4  2  0  0  0  0
  9  8  1  0  0  0  0
 10  2  2  0  0  0  0
 11 15  1  0  0  0  0
 12 14  2  0  0  0  0
 13  3  1  0  0  0  0
 14  6  1  0  0  0  0
 15  9  2  0  0  0  0
 16 12  1  0  0  0  0
 17  9  1  0  0  0  0
 18 20  1  0  0  0  0
 19  8  1  0  0  0  0
 20 17  2  0  0  0  0
  7 12  1  0  0  0  0
 11 18  2  0  0  0  0
M  END
> <#>
1671

> <PLATE>
LAT021

> <ROW>
G

> <COL>
10

> <COORD>
G10

> <LATID>
LAT021G10

> <Supplier>
Chembridge

> <Suplier_CAT#>
5634291

> <Name>
Novel

> <Concentration_(mM)>
2.5

> <IC50_(µM)>
inactive

> <Yeast_Active?>
-

> <Pubchem_CID>
872841

$$$$
