
  -ISIS-  08130814242D

 24 27  0  0  0  0  0  0  0  0999 V2000
   -1.1458   -0.6292    0.0000 C   0  0  0  0  0  0  0  0  0  0  0  0
   -2.0500   -0.6292    0.0000 C   0  0  0  0  0  0  0  0  0  0  0  0
   -3.4125    0.1500    0.0000 C   0  0  0  0  0  0  0  0  0  0  0  0
    2.0792    0.1500    0.0000 C   0  0  0  0  0  0  0  0  0  0  0  0
   -2.5000    0.1500    0.0000 C   0  0  0  0  0  0  0  0  0  0  0  0
    0.2667    0.1500    0.0000 N   0  0  0  0  0  0  0  0  0  0  0  0
    1.6042   -0.6792    0.0000 C   0  0  0  0  0  0  0  0  0  0  0  0
   -3.8833   -0.6292    0.0000 C   0  0  0  0  0  0  0  0  0  0  0  0
   -4.7833    0.9958    0.0000 O   0  0  0  0  0  0  0  0  0  0  0  0
   -4.8208   -0.6375    0.0000 O   0  0  0  0  0  0  0  0  0  0  0  0
    1.5792    0.9833    0.0000 N   0  0  0  0  0  0  0  0  0  0  0  0
   -5.2708    0.2000    0.0000 C   0  0  0  0  0  0  0  0  0  0  0  0
   -0.7500    0.1500    0.0000 N   0  0  0  0  0  0  0  0  0  0  0  0
   -0.6958   -1.4375    0.0000 O   0  0  0  0  0  0  0  0  0  0  0  0
   -2.5000   -1.4292    0.0000 C   0  0  0  0  0  0  0  0  0  0  0  0
    0.7167   -0.6792    0.0000 C   0  0  0  0  0  0  0  0  0  0  0  0
   -3.4333   -1.4292    0.0000 C   0  0  0  0  0  0  0  0  0  0  0  0
    3.0042    0.1500    0.0000 C   0  0  0  0  0  0  0  0  0  0  0  0
    2.0792   -1.4542    0.0000 C   0  0  0  0  0  0  0  0  0  0  0  0
    3.0042   -1.4542    0.0000 C   0  0  0  0  0  0  0  0  0  0  0  0
    2.0542    1.8208    0.0000 C   0  0  0  0  0  0  0  0  0  0  0  0
    3.4292   -0.6792    0.0000 C   0  0  0  0  0  0  0  0  0  0  0  0
    3.5042    0.9833    0.0000 C   0  0  0  0  0  0  0  0  0  0  0  0
    3.0292    1.8208    0.0000 C   0  0  0  0  0  0  0  0  0  0  0  0
  2  1  1  0  0  0  0
  3  5  2  0  0  0  0
  4  7  1  0  0  0  0
  5  2  1  0  0  0  0
  6 13  1  0  0  0  0
  7 16  1  0  0  0  0
  8 17  2  0  0  0  0
  9  3  1  0  0  0  0
 10  8  1  0  0  0  0
 11  4  1  0  0  0  0
 12  9  1  0  0  0  0
 13  1  1  0  0  0  0
 14  1  2  0  0  0  0
 15  2  2  0  0  0  0
 16  6  2  0  0  0  0
 17 15  1  0  0  0  0
 18  4  2  0  0  0  0
 19  7  2  0  0  0  0
 20 19  1  0  0  0  0
 21 11  2  0  0  0  0
 22 20  2  0  0  0  0
 23 18  1  0  0  0  0
 24 23  2  0  0  0  0
  8  3  1  0  0  0  0
 10 12  1  0  0  0  0
 22 18  1  0  0  0  0
 21 24  1  0  0  0  0
M  END
> <#>
968

> <PLATE>
LAT013

> <ROW>
H

> <COL>
2

> <COORD>
H02

> <LATID>
LAT013H02

> <Supplier>
Chembridge

> <Suplier_CAT#>
5747908

> <Name>
Novel

> <Sec_Name>
237_G08

> <Concentration_(mM)>
2.5

> <IC50_(µM)>
52

> <Yeast_Active?>
-

> <Pubchem_CID>
869605

$$$$
