
  -ISIS-  08130814242D

 26 28  0  0  0  0  0  0  0  0999 V2000
   -3.5000    0.7333    0.0000 C   0  0  0  0  0  0  0  0  0  0  0  0
   -5.1208    0.7333    0.0000 N   0  0  0  0  0  0  0  0  0  0  0  0
   -4.3000    2.1333    0.0000 N   0  0  0  0  0  0  0  0  0  0  0  0
   -4.3125    0.2625    0.0000 C   0  0  0  0  0  0  0  0  0  0  0  0
   -3.5000    1.6708    0.0000 C   0  0  0  0  0  0  0  0  0  0  0  0
   -5.1333    1.7000    0.0000 C   0  0  0  0  0  0  0  0  0  0  0  0
   -2.7000    0.2625    0.0000 C   0  0  0  0  0  0  0  0  0  0  0  0
    3.0042    1.6333    0.0000 C   0  0  0  0  0  0  0  0  0  0  0  0
    2.2042    2.1125    0.0000 C   0  0  0  0  0  0  0  0  0  0  0  0
   -5.8958    2.1458    0.0000 S   0  0  0  0  0  0  0  0  0  0  0  0
    3.8292    2.0958    0.0000 C   0  0  0  0  0  0  0  0  0  0  0  0
   -2.6833    2.1333    0.0000 O   0  0  0  0  0  0  0  0  0  0  0  0
   -4.3125   -0.6667    0.0000 O   0  0  0  0  0  0  0  0  0  0  0  0
    1.3875    1.6458    0.0000 C   0  0  0  0  0  0  0  0  0  0  0  0
    2.2042    3.0500    0.0000 C   0  0  0  0  0  0  0  0  0  0  0  0
   -1.8958    0.7125    0.0000 C   0  0  0  0  0  0  0  0  0  0  0  0
    0.5792    2.1208    0.0000 O   0  0  0  0  0  0  0  0  0  0  0  0
    3.8500    3.0333    0.0000 C   0  0  0  0  0  0  0  0  0  0  0  0
    3.0042    0.6958    0.0000 Cl  0  0  0  0  0  0  0  0  0  0  0  0
   -0.2458    1.6458    0.0000 C   0  0  0  0  0  0  0  0  0  0  0  0
    3.0292    3.5208    0.0000 C   0  0  0  0  0  0  0  0  0  0  0  0
    4.6667    3.5000    0.0000 Cl  0  0  0  0  0  0  0  0  0  0  0  0
   -1.8958    1.6625    0.0000 C   0  0  0  0  0  0  0  0  0  0  0  0
   -1.0708    0.2333    0.0000 C   0  0  0  0  0  0  0  0  0  0  0  0
   -0.2458    0.7000    0.0000 C   0  0  0  0  0  0  0  0  0  0  0  0
   -1.0625    2.1208    0.0000 C   0  0  0  0  0  0  0  0  0  0  0  0
  2  4  1  0  0  0  0
  3  5  1  0  0  0  0
  4  1  1  0  0  0  0
  5  1  1  0  0  0  0
  6  3  1  0  0  0  0
  7  1  2  0  0  0  0
  8  9  2  0  0  0  0
  9 14  1  0  0  0  0
 10  6  2  0  0  0  0
 11  8  1  0  0  0  0
 12  5  2  0  0  0  0
 13  4  2  0  0  0  0
 14 17  1  0  0  0  0
 15  9  1  0  0  0  0
 16  7  1  0  0  0  0
 17 20  1  0  0  0  0
 18 21  1  0  0  0  0
 19  8  1  0  0  0  0
 20 25  1  0  0  0  0
 21 15  2  0  0  0  0
 22 18  1  0  0  0  0
 23 16  2  0  0  0  0
 24 16  1  0  0  0  0
 25 24  2  0  0  0  0
 26 23  1  0  0  0  0
  2  6  1  0  0  0  0
 20 26  2  0  0  0  0
 11 18  2  0  0  0  0
M  END
> <#>
716

> <PLATE>
LAT009

> <ROW>
D

> <COL>
11

> <COORD>
D11

> <LATID>
LAT009D11

> <Supplier>
Chembridge

> <Suplier_CAT#>
5562281

> <Name>
Novel

> <Sec_Name>
170_G10

> <Concentration_(mM)>
2.5

> <IC50_(µM)>
90

> <Yeast_Active?>
+

> <Pubchem_CID>
1097189

$$$$
