
  -ISIS-  08130814242D

 18 19  0  0  0  0  0  0  0  0999 V2000
    2.6167   -1.1667    0.0000 C   0  0  0  0  0  0  0  0  0  0  0  0
    1.9667   -1.5500    0.0000 C   0  0  0  0  0  0  0  0  0  0  0  0
    3.9167   -1.1792    0.0000 N   0  0  0  0  0  0  0  0  0  0  0  0
    3.2667   -1.5500    0.0000 N   0  0  0  0  0  0  0  0  0  0  0  0
    1.3167   -1.1667    0.0000 C   0  0  0  0  0  0  0  0  0  0  0  0
    2.6167   -0.4167    0.0000 O   0  0  0  0  0  0  0  0  0  0  0  0
    5.8667   -0.0500    0.0000 N   0  0  0  0  0  0  0  0  0  0  0  0
    4.5667   -1.5500    0.0000 C   0  0  0  0  0  0  0  0  0  0  0  0
    5.2167   -1.1792    0.0000 C   0  0  0  0  0  0  0  0  0  0  0  0
    0.6667   -1.5500    0.0000 C   0  0  0  0  0  0  0  0  0  0  0  0
    0.0167   -1.1792    0.0000 F   0  0  0  0  0  0  0  0  0  0  0  0
    5.2167   -0.4292    0.0000 C   0  0  0  0  0  0  0  0  0  0  0  0
    1.9667   -2.3000    0.0000 C   0  0  0  0  0  0  0  0  0  0  0  0
    1.3167   -2.6792    0.0000 C   0  0  0  0  0  0  0  0  0  0  0  0
    6.5167   -0.4292    0.0000 C   0  0  0  0  0  0  0  0  0  0  0  0
    5.8667   -1.5500    0.0000 C   0  0  0  0  0  0  0  0  0  0  0  0
    0.6667   -2.3000    0.0000 C   0  0  0  0  0  0  0  0  0  0  0  0
    6.5167   -1.1792    0.0000 C   0  0  0  0  0  0  0  0  0  0  0  0
  2  1  1  0  0  0  0
  3  4  1  0  0  0  0
  4  1  1  0  0  0  0
  5  2  1  0  0  0  0
  6  1  2  0  0  0  0
  7 12  2  0  0  0  0
  8  3  2  0  0  0  0
  9  8  1  0  0  0  0
 10  5  2  0  0  0  0
 11 10  1  0  0  0  0
 12  9  1  0  0  0  0
 13  2  2  0  0  0  0
 14 13  1  0  0  0  0
 15 18  2  0  0  0  0
 16  9  2  0  0  0  0
 17 14  2  0  0  0  0
 18 16  1  0  0  0  0
 17 10  1  0  0  0  0
  7 15  1  0  0  0  0
M  END
> <#>
1659

> <PLATE>
LAT021

> <ROW>
C

> <COL>
9

> <COORD>
C09

> <LATID>
LAT021C09

> <Supplier>
Chembridge

> <Suplier_CAT#>
5326585

> <Name>
Novel

> <Concentration_(mM)>
2.5

> <IC50_(µM)>
>100

> <Yeast_Active?>
-

> <Pubchem_CID>
795242

$$$$
