
  -ISIS-  08130814242D

 15 15  0  0  0  0  0  0  0  0999 V2000
   -1.1500    1.0125    0.0000 C   0  0  0  0  0  0  0  0  0  0  0  0
   -1.1500    0.1708    0.0000 C   0  0  0  0  0  0  0  0  0  0  0  0
   -0.4125   -0.2667    0.0000 C   0  0  0  0  0  0  0  0  0  0  0  0
   -0.4125    1.4333    0.0000 C   0  0  0  0  0  0  0  0  0  0  0  0
   -1.8958    1.4500    0.0000 C   0  0  0  0  0  0  0  0  0  0  0  0
   -1.8708    2.3125    0.0000 O   0  0  0  0  0  0  0  0  0  0  0  0
    0.3292    0.1500    0.0000 C   0  0  0  0  0  0  0  0  0  0  0  0
   -1.8958   -0.2667    0.0000 O   0  0  0  0  0  0  0  0  0  0  0  0
    0.3292    1.0125    0.0000 C   0  0  0  0  0  0  0  0  0  0  0  0
    1.0667   -0.2875    0.0000 O   0  0  0  0  0  0  0  0  0  0  0  0
   -2.6333    1.0333    0.0000 C   0  0  0  0  0  0  0  0  0  0  0  0
   -3.3708    1.4708    0.0000 C   0  0  0  0  0  0  0  0  0  0  0  0
   -4.8500    1.4708    0.0000 C   0  0  0  0  0  0  0  0  0  0  0  0
   -4.1125    1.0500    0.0000 C   0  0  0  0  0  0  0  0  0  0  0  0
   -5.5958    1.0500    0.0000 C   0  0  0  0  0  0  0  0  0  0  0  0
  2  1  1  0  0  0  0
  3  2  2  0  0  0  0
  4  1  2  0  0  0  0
  5  1  1  0  0  0  0
  6  5  2  0  0  0  0
  7  9  2  0  0  0  0
  8  2  1  0  0  0  0
  9  4  1  0  0  0  0
 10  7  1  0  0  0  0
 11  5  1  0  0  0  0
 12 11  1  0  0  0  0
 13 14  1  0  0  0  0
 14 12  1  0  0  0  0
 15 13  1  0  0  0  0
  7  3  1  0  0  0  0
M  END
> <#>
1179

> <PLATE>
LAT015

> <ROW>
C

> <COL>
9

> <COORD>
C09

> <LATID>
LAT015C09

> <Supplier>
Chembridge

> <Suplier_CAT#>
5156699

> <Name>
Novel

> <Concentration_(mM)>
2.5

> <IC50_(µM)>
55

> <Yeast_Active?>
-

> <Pubchem_CID>
76596

$$$$
