
  -ISIS-  08130814242D

 14 15  0  0  0  0  0  0  0  0999 V2000
   -0.8333   -1.3542    0.0000 N   0  0  0  0  0  0  0  0  0  0  0  0
   -1.5125   -1.0542    0.0000 C   0  0  0  0  0  0  0  0  0  0  0  0
   -0.3333   -0.8000    0.0000 C   0  0  0  0  0  0  0  0  0  0  0  0
   -2.1500   -1.4375    0.0000 C   0  0  0  0  0  0  0  0  0  0  0  0
   -0.7125   -0.1375    0.0000 S   0  0  0  0  0  0  0  0  0  0  0  0
   -1.4500   -0.3167    0.0000 C   0  0  0  0  0  0  0  0  0  0  0  0
   -2.8125   -1.0875    0.0000 C   0  0  0  0  0  0  0  0  0  0  0  0
   -3.4458   -1.4667    0.0000 C   0  0  0  0  0  0  0  0  0  0  0  0
   -2.1458   -2.1792    0.0000 C   0  0  0  0  0  0  0  0  0  0  0  0
    0.4500   -0.8000    0.0000 N   0  0  0  0  0  0  0  0  0  0  0  0
   -3.4333   -2.2167    0.0000 C   0  0  0  0  0  0  0  0  0  0  0  0
   -2.8458   -0.3500    0.0000 Cl  0  0  0  0  0  0  0  0  0  0  0  0
   -2.7708   -2.5667    0.0000 C   0  0  0  0  0  0  0  0  0  0  0  0
   -4.0625   -2.6000    0.0000 Cl  0  0  0  0  0  0  0  0  0  0  0  0
  2  1  1  0  0  0  0
  3  1  2  0  0  0  0
  4  2  1  0  0  0  0
  5  3  1  0  0  0  0
  6  2  2  0  0  0  0
  7  4  2  0  0  0  0
  8  7  1  0  0  0  0
  9  4  1  0  0  0  0
 10  3  1  0  0  0  0
 11 13  1  0  0  0  0
 12  7  1  0  0  0  0
 13  9  2  0  0  0  0
 14 11  1  0  0  0  0
  6  5  1  0  0  0  0
  8 11  2  0  0  0  0
M  END
> <#>
915

> <PLATE>
LAT012

> <ROW>
C

> <COL>
6

> <COORD>
C06

> <LATID>
LAT012C06

> <Supplier>
Chembridge

> <Suplier_CAT#>
5690421

> <Name>
Novel

> <Sec_Name>
219_D08

> <Concentration_(mM)>
2.5

> <IC50_(µM)>
48

> <Yeast_Active?>
-

> <Pubchem_CID>
704237

$$$$
