
  -ISIS-  08130814242D

 17 18  0  0  0  0  0  0  0  0999 V2000
   -2.3458   -0.6292    0.0000 N   0  0  0  0  0  0  0  0  0  0  0  0
   -1.6625   -0.2375    0.0000 C   0  0  0  0  0  0  0  0  0  0  0  0
   -3.0125   -0.2500    0.0000 C   0  0  0  0  0  0  0  0  0  0  0  0
   -1.6625    0.5208    0.0000 N   0  0  0  0  0  0  0  0  0  0  0  0
   -3.0333    0.5208    0.0000 C   0  0  0  0  0  0  0  0  0  0  0  0
   -0.3208   -0.3000    0.0000 N   0  0  0  0  0  0  0  0  0  0  0  0
   -2.3458    0.9000    0.0000 C   0  0  0  0  0  0  0  0  0  0  0  0
   -1.0000   -0.6292    0.0000 N   0  0  0  0  0  0  0  0  0  0  0  0
    2.1917   -1.5375    0.0000 N   0  0  0  0  0  0  0  0  0  0  0  0
    0.2375   -0.8792    0.0000 C   0  0  0  0  0  0  0  0  0  0  0  0
    1.0042   -0.8792    0.0000 C   0  0  0  0  0  0  0  0  0  0  0  0
   -3.6958   -0.6375    0.0000 O   0  0  0  0  0  0  0  0  0  0  0  0
    1.4042   -1.5292    0.0000 C   0  0  0  0  0  0  0  0  0  0  0  0
    2.5792   -0.8500    0.0000 C   0  0  0  0  0  0  0  0  0  0  0  0
   -2.3625    1.6833    0.0000 C   0  0  0  0  0  0  0  0  0  0  0  0
    1.3875   -0.1875    0.0000 C   0  0  0  0  0  0  0  0  0  0  0  0
    2.1667   -0.1667    0.0000 C   0  0  0  0  0  0  0  0  0  0  0  0
  2  1  1  0  0  0  0
  3  1  2  0  0  0  0
  4  2  2  0  0  0  0
  5  3  1  0  0  0  0
  6  8  1  0  0  0  0
  7  5  2  0  0  0  0
  8  2  1  0  0  0  0
  9 13  1  0  0  0  0
 10  6  2  0  0  0  0
 11 10  1  0  0  0  0
 12  3  1  0  0  0  0
 13 11  2  0  0  0  0
 14 17  1  0  0  0  0
 15  7  1  0  0  0  0
 16 11  1  0  0  0  0
 17 16  2  0  0  0  0
  7  4  1  0  0  0  0
 14  9  2  0  0  0  0
M  END
> <#>
1640

> <PLATE>
LAT021

> <ROW>
H

> <COL>
6

> <COORD>
H06

> <LATID>
LAT021H06

> <Supplier>
Chembridge

> <Suplier_CAT#>
5340594

> <Name>
Novel

> <Concentration_(mM)>
2.5

> <IC50_(µM)>
inactive

> <Yeast_Active?>
-

> <Pubchem_CID>
NULL

$$$$
