
  -ISIS-  08130814242D

 45 48  0  0  0  0  0  0  0  0999 V2000
   -2.0829   -5.3149    0.0000 C   0  0  0  0  0  0  0  0  0  0  0  0
   -2.7079   -4.2324    0.0000 C   0  0  2  0  0  0  0  0  0  0  0  0
   -3.9579   -4.2324    0.0000 C   0  0  1  0  0  0  0  0  0  0  0  0
   -4.5829   -3.1498    0.0000 C   0  0  1  0  0  0  0  0  0  0  0  0
   -3.9579   -2.0673    0.0000 C   0  0  2  0  0  0  0  0  0  0  0  0
   -2.7079   -2.0673    0.0000 C   0  0  2  0  0  0  0  0  0  0  0  0
   -2.0829   -3.1498    0.0000 O   0  0  0  0  0  0  0  0  0  0  0  0
   -2.0829   -0.9848    0.0000 O   0  0  0  0  0  0  0  0  0  0  0  0
   -0.8329   -0.9848    0.0000 C   0  0  0  0  0  0  0  0  0  0  0  0
   -0.2079    0.0978    0.0000 C   0  0  2  0  0  0  0  0  0  0  0  0
   -0.8329    1.1803    0.0000 C   0  0  1  0  0  0  0  0  0  0  0  0
   -0.2079    2.2628    0.0000 C   0  0  1  0  0  0  0  0  0  0  0  0
    1.0421    2.2628    0.0000 C   0  0  2  0  0  0  0  0  0  0  0  0
    1.6671    1.1803    0.0000 C   0  0  2  0  0  0  0  0  0  0  0  0
    1.0421    0.0978    0.0000 O   0  0  0  0  0  0  0  0  0  0  0  0
    2.9171    1.1803    0.0000 O   0  0  0  0  0  0  0  0  0  0  0  0
    3.5421    0.0978    0.0000 C   0  0  0  0  0  0  0  0  0  0  0  0
    4.7921    0.0978    0.0000 C   0  0  2  0  0  0  0  0  0  0  0  0
    5.4171    1.1803    0.0000 C   0  0  2  0  0  0  0  0  0  0  0  0
    6.6671    1.1803    0.0000 C   0  0  1  0  0  0  0  0  0  0  0  0
    7.2921    0.0978    0.0000 C   0  0  2  0  0  0  0  0  0  0  0  0
    6.6671   -0.9848    0.0000 C   0  0  2  0  0  0  0  0  0  0  0  0
    5.4171   -0.9848    0.0000 O   0  0  0  0  0  0  0  0  0  0  0  0
    7.2921   -2.0673    0.0000 O   0  0  0  0  0  0  0  0  0  0  0  0
    6.6671   -3.1498    0.0000 C   0  0  1  0  0  0  0  0  0  0  0  0
    6.2809   -4.3387    0.0000 C   0  0  2  0  0  0  0  0  0  0  0  0
    5.0309   -4.3387    0.0000 C   0  0  1  0  0  0  0  0  0  0  0  0
    4.6446   -3.1498    0.0000 C   0  0  2  0  0  0  0  0  0  0  0  0
    5.6559   -2.4151    0.0000 O   0  0  0  0  0  0  0  0  0  0  0  0
    3.4558   -2.7636    0.0000 C   0  0  0  0  0  0  0  0  0  0  0  0
    2.5269   -3.6000    0.0000 O   0  0  0  0  0  0  0  0  0  0  0  0
    4.2961   -5.3499    0.0000 O   0  0  0  0  0  0  0  0  0  0  0  0
    7.0156   -5.3499    0.0000 O   0  0  0  0  0  0  0  0  0  0  0  0
    7.8091   -3.6583    0.0000 C   0  0  0  0  0  0  0  0  0  0  0  0
    8.8204   -2.9235    0.0000 O   0  0  0  0  0  0  0  0  0  0  0  0
    8.5421    0.0978    0.0000 O   0  0  0  0  0  0  0  0  0  0  0  0
    7.2921    2.2628    0.0000 O   0  0  0  0  0  0  0  0  0  0  0  0
    4.7921    2.2628    0.0000 O   0  0  0  0  0  0  0  0  0  0  0  0
    1.6671    3.3454    0.0000 O   0  0  0  0  0  0  0  0  0  0  0  0
   -0.8329    3.3454    0.0000 O   0  0  0  0  0  0  0  0  0  0  0  0
   -2.0829    1.1803    0.0000 O   0  0  0  0  0  0  0  0  0  0  0  0
   -4.5829   -0.9848    0.0000 O   0  0  0  0  0  0  0  0  0  0  0  0
   -5.8329   -3.1498    0.0000 O   0  0  0  0  0  0  0  0  0  0  0  0
   -4.5829   -5.3149    0.0000 O   0  0  0  0  0  0  0  0  0  0  0  0
   -2.7079   -6.3974    0.0000 O   0  0  0  0  0  0  0  0  0  0  0  0
  2  1  1  6  0  0  0
  2  3  1  0  0  0  0
  3  4  1  0  0  0  0
  4  5  1  0  0  0  0
  5  6  1  0  0  0  0
  6  7  1  0  0  0  0
  2  7  1  0  0  0  0
  6  8  1  1  0  0  0
  8  9  1  0  0  0  0
 10  9  1  6  0  0  0
 10 11  1  0  0  0  0
 11 12  1  0  0  0  0
 12 13  1  0  0  0  0
 13 14  1  0  0  0  0
 14 15  1  0  0  0  0
 10 15  1  0  0  0  0
 14 16  1  1  0  0  0
 16 17  1  0  0  0  0
 18 17  1  6  0  0  0
 18 19  1  0  0  0  0
 19 20  1  0  0  0  0
 20 21  1  0  0  0  0
 21 22  1  0  0  0  0
 22 23  1  0  0  0  0
 18 23  1  0  0  0  0
 22 24  1  1  0  0  0
 25 24  1  1  0  0  0
 25 26  1  0  0  0  0
 26 27  1  0  0  0  0
 27 28  1  0  0  0  0
 28 29  1  0  0  0  0
 25 29  1  0  0  0  0
 28 30  1  1  0  0  0
 30 31  1  0  0  0  0
 27 32  1  6  0  0  0
 26 33  1  1  0  0  0
 25 34  1  6  0  0  0
 34 35  1  0  0  0  0
 21 36  1  1  0  0  0
 20 37  1  6  0  0  0
 19 38  1  1  0  0  0
 13 39  1  1  0  0  0
 12 40  1  6  0  0  0
 11 41  1  6  0  0  0
  5 42  1  1  0  0  0
  4 43  1  6  0  0  0
  3 44  1  6  0  0  0
  1 45  1  0  0  0  0
M  END
> <#>
413

> <PLATE>
LAT006

> <ROW>
E

> <COL>
3

> <COORD>
E03

> <LATID>
LAT006E03

> <Supplier>
Nutirional Biochemicals

> <Suplier_CAT#>
Stachyose

> <Name>
Stachyose

> <Concentration_(mM)>
2.5

> <IC50_(µM)>
inactive

> <Yeast_Active?>
-

> <Pubchem_CID>
91455

$$$$
