
  -ISIS-  08130814242D

 16 17  0  0  0  0  0  0  0  0999 V2000
   -0.9125   -1.2792    0.0000 C   0  0  0  0  0  0  0  0  0  0  0  0
   -0.9125   -0.1792    0.0000 C   0  0  0  0  0  0  0  0  0  0  0  0
    0.0500    0.3833    0.0000 C   0  0  0  0  0  0  0  0  0  0  0  0
    0.0500   -1.8167    0.0000 O   0  0  0  0  0  0  0  0  0  0  0  0
    1.0042   -1.2792    0.0000 C   0  0  0  0  0  0  0  0  0  0  0  0
    1.0042   -0.1792    0.0000 C   0  0  0  0  0  0  0  0  0  0  0  0
   -1.8708   -1.8167    0.0000 C   0  0  0  0  0  0  0  0  0  0  0  0
   -1.8708    0.3833    0.0000 C   0  0  0  0  0  0  0  0  0  0  0  0
   -2.8333   -1.2792    0.0000 C   0  0  0  0  0  0  0  0  0  0  0  0
   -2.8333   -0.1792    0.0000 C   0  0  0  0  0  0  0  0  0  0  0  0
    1.9667   -1.8375    0.0000 O   0  0  0  0  0  0  0  0  0  0  0  0
   -3.7958   -1.8375    0.0000 N   0  0  0  0  0  0  0  0  0  0  0  0
    0.0500    1.4833    0.0000 C   0  0  0  0  0  0  0  0  0  0  0  0
   -3.7958    0.3625    0.0000 C   0  0  0  0  0  0  0  0  0  0  0  0
   -3.7958   -2.9375    0.0000 C   0  0  0  0  0  0  0  0  0  0  0  0
   -4.7333   -3.4792    0.0000 C   0  0  0  0  0  0  0  0  0  0  0  0
  2  1  2  0  0  0  0
  3  2  1  0  0  0  0
  4  1  1  0  0  0  0
  5  4  1  0  0  0  0
  6  5  1  0  0  0  0
  7  1  1  0  0  0  0
  8  2  1  0  0  0  0
  9  7  2  0  0  0  0
 10  9  1  0  0  0  0
 11  5  2  0  0  0  0
 12  9  1  0  0  0  0
 13  3  1  0  0  0  0
 14 10  1  0  0  0  0
 15 12  1  0  0  0  0
 16 15  1  0  0  0  0
 10  8  2  0  0  0  0
  6  3  2  0  0  0  0
M  END
> <#>
1819

> <PLATE>
LAT023

> <ROW>
C

> <COL>
9

> <COORD>
C09

> <LATID>
LAT023C09

> <Supplier>
Chembridge

> <Suplier_CAT#>
5647837

> <Name>
Novel

> <Sec_Name>
197_D06

> <Concentration_(mM)>
2.5

> <IC50_(µM)>
10

> <Yeast_Active?>
-

> <Pubchem_CID>
96929

$$$$
