
  -ISIS-  08130814242D

 17 19  0  0  0  0  0  0  0  0999 V2000
   -0.0333    1.8125    0.0000 N   0  0  3  0  0  0  0  0  0  0  0  0
    0.5167    2.6000    0.0000 C   0  0  0  0  0  0  0  0  0  0  0  0
   -0.0333    3.3958    0.0000 N   0  0  0  0  0  0  0  0  0  0  0  0
   -0.9333    2.1208    0.0000 C   0  0  0  0  0  0  0  0  0  0  0  0
   -0.9333    3.0958    0.0000 C   0  0  0  0  0  0  0  0  0  0  0  0
    0.3167    0.9333    0.0000 C   0  0  0  0  0  0  0  0  0  0  0  0
   -0.3000    0.1958    0.0000 C   0  0  0  0  0  0  0  0  0  0  0  0
    1.2542    0.7625    0.0000 C   0  0  0  0  0  0  0  0  0  0  0  0
    0.9792   -0.8667    0.0000 C   0  0  0  0  0  0  0  0  0  0  0  0
    0.0292   -0.6875    0.0000 C   0  0  0  0  0  0  0  0  0  0  0  0
    1.5875   -0.1167    0.0000 C   0  0  0  0  0  0  0  0  0  0  0  0
   -1.7708    1.6458    0.0000 C   0  0  0  0  0  0  0  0  0  0  0  0
    1.3042   -1.7667    0.0000 O   0  0  0  0  0  0  0  0  0  0  0  0
   -1.7708    3.5708    0.0000 C   0  0  0  0  0  0  0  0  0  0  0  0
    0.6875   -2.4875    0.0000 C   0  0  0  0  0  0  0  0  0  0  0  0
   -2.6000    2.1208    0.0000 C   0  0  0  0  0  0  0  0  0  0  0  0
   -2.6000    3.0958    0.0000 C   0  0  0  0  0  0  0  0  0  0  0  0
  2  1  1  0  0  0  0
  3  2  2  0  0  0  0
  4  1  1  0  0  0  0
  5  4  2  0  0  0  0
  6  1  1  0  0  0  0
  7  6  1  0  0  0  0
  8  6  2  0  0  0  0
  9 11  2  0  0  0  0
 10  7  2  0  0  0  0
 11  8  1  0  0  0  0
 12  4  1  0  0  0  0
 13  9  1  0  0  0  0
 14  5  1  0  0  0  0
 15 13  1  0  0  0  0
 16 12  2  0  0  0  0
 17 16  1  0  0  0  0
  5  3  1  0  0  0  0
  9 10  1  0  0  0  0
 17 14  2  0  0  0  0
M  END
> <#>
804

> <PLATE>
LAT011

> <ROW>
D

> <COL>
2

> <COORD>
D02

> <LATID>
LAT011D02

> <Supplier>
Chembridge

> <Suplier_CAT#>
5657731

> <Name>
Novel

> <Sec_Name>
204_H05

> <Concentration_(mM)>
2.5

> <IC50_(µM)>
57

> <Yeast_Active?>
-

> <Pubchem_CID>
743942

$$$$
