
  -ISIS-  08130814242D

 17 18  0  0  0  0  0  0  0  0999 V2000
    0.5917    0.9208    0.0000 N   0  0  0  0  0  0  0  0  0  0  0  0
    0.5917    0.1708    0.0000 C   0  0  0  0  0  0  0  0  0  0  0  0
    1.8875    0.1708    0.0000 C   0  0  0  0  0  0  0  0  0  0  0  0
    1.8875    0.9208    0.0000 C   0  0  0  0  0  0  0  0  0  0  0  0
    1.2375   -0.2042    0.0000 S   0  0  0  0  0  0  0  0  0  0  0  0
    2.5375   -2.4542    0.0000 C   0  0  0  0  0  0  0  0  0  0  0  0
    2.5375   -0.2042    0.0000 C   0  0  0  0  0  0  0  0  0  0  0  0
    1.8875   -2.0792    0.0000 C   0  0  0  0  0  0  0  0  0  0  0  0
    3.1917   -2.0792    0.0000 C   0  0  0  0  0  0  0  0  0  0  0  0
    2.5375   -0.9542    0.0000 C   0  0  0  0  0  0  0  0  0  0  0  0
    1.8875   -1.3250    0.0000 C   0  0  0  0  0  0  0  0  0  0  0  0
    3.1875   -1.3292    0.0000 C   0  0  0  0  0  0  0  0  0  0  0  0
   -0.0583   -0.2000    0.0000 O   0  0  0  0  0  0  0  0  0  0  0  0
    2.4167    1.4583    0.0000 O   0  0  0  0  0  0  0  0  0  0  0  0
    3.8375   -2.4542    0.0000 Br  0  0  0  0  0  0  0  0  0  0  0  0
    1.2375   -2.4500    0.0000 Br  0  0  0  0  0  0  0  0  0  0  0  0
    2.5292   -3.2000    0.0000 O   0  0  0  0  0  0  0  0  0  0  0  0
  2  1  1  0  0  0  0
  3  4  1  0  0  0  0
  4  1  1  0  0  0  0
  5  2  1  0  0  0  0
  6  9  1  0  0  0  0
  7  3  2  0  0  0  0
  8 11  1  0  0  0  0
  9 12  2  0  0  0  0
 10  7  1  0  0  0  0
 11 10  2  0  0  0  0
 12 10  1  0  0  0  0
 13  2  2  0  0  0  0
 14  4  2  0  0  0  0
 15  9  1  0  0  0  0
 16  8  1  0  0  0  0
 17  6  1  0  0  0  0
  3  5  1  0  0  0  0
  6  8  2  0  0  0  0
M  END
> <#>
1028

> <PLATE>
LAT013

> <ROW>
D

> <COL>
10

> <COORD>
D10

> <LATID>
LAT013D10

> <Supplier>
Chembridge

> <Suplier_CAT#>
5739278

> <Name>
Novel

> <Sec_Name>
233_E06

> <Concentration_(mM)>
2.5

> <IC50_(µM)>
100

> <Yeast_Active?>
-

> <Pubchem_CID>
1269411

$$$$
