
  -ISIS-  08130814242D

 27 29  0  0  0  0  0  0  0  0999 V2000
   -0.4958    0.7000    0.0000 C   0  0  0  0  0  0  0  0  0  0  0  0
   -1.2458    0.3583    0.0000 C   0  0  0  0  0  0  0  0  0  0  0  0
   -1.3708    1.6875    0.0000 N   0  0  3  0  0  0  0  0  0  0  0  0
   -1.7958    0.9750    0.0000 N   0  0  3  0  0  0  0  0  0  0  0  0
   -0.5708    1.5083    0.0000 C   0  0  0  0  0  0  0  0  0  0  0  0
    0.2292    0.2833    0.0000 N   0  0  3  0  0  0  0  0  0  0  0  0
    0.9417    0.7125    0.0000 C   0  0  0  0  0  0  0  0  0  0  0  0
   -1.4083   -0.4542    0.0000 O   0  0  0  0  0  0  0  0  0  0  0  0
   -2.6208    0.8625    0.0000 C   0  0  0  0  0  0  0  0  0  0  0  0
    0.9292    1.5375    0.0000 S   0  0  0  0  0  0  0  0  0  0  0  0
    1.6792    0.3083    0.0000 N   0  0  3  0  0  0  0  0  0  0  0  0
    3.8167    0.7750    0.0000 N   0  0  0  0  0  0  0  0  0  0  0  0
   -1.7083    2.4583    0.0000 C   0  0  0  0  0  0  0  0  0  0  0  0
    0.0542    2.0375    0.0000 C   0  0  0  0  0  0  0  0  0  0  0  0
    3.1167    0.3458    0.0000 C   0  0  0  0  0  0  0  0  0  0  0  0
    2.3792    0.7458    0.0000 C   0  0  0  0  0  0  0  0  0  0  0  0
    4.5417    0.3833    0.0000 C   0  0  0  0  0  0  0  0  0  0  0  0
   -2.9333    0.0958    0.0000 C   0  0  0  0  0  0  0  0  0  0  0  0
   -3.1250    1.5250    0.0000 C   0  0  0  0  0  0  0  0  0  0  0  0
    3.1292   -0.4875    0.0000 C   0  0  0  0  0  0  0  0  0  0  0  0
    4.5667   -0.4500    0.0000 C   0  0  0  0  0  0  0  0  0  0  0  0
   -3.9458    1.4083    0.0000 C   0  0  0  0  0  0  0  0  0  0  0  0
   -3.7500   -0.0167    0.0000 C   0  0  0  0  0  0  0  0  0  0  0  0
    3.8542   -0.8792    0.0000 C   0  0  0  0  0  0  0  0  0  0  0  0
   -4.2583    0.6458    0.0000 C   0  0  0  0  0  0  0  0  0  0  0  0
    0.2500   -0.5542    0.0000 H   0  0  0  0  0  0  0  0  0  0  0  0
    1.6917   -0.5167    0.0000 H   0  0  0  0  0  0  0  0  0  0  0  0
  2  1  1  0  0  0  0
  3  5  1  0  0  0  0
  4  2  1  0  0  0  0
  5  1  2  0  0  0  0
  6  1  1  0  0  0  0
  7  6  1  0  0  0  0
  8  2  2  0  0  0  0
  9  4  1  0  0  0  0
 10  7  2  0  0  0  0
 11  7  1  0  0  0  0
 12 15  1  0  0  0  0
 13  3  1  0  0  0  0
 14  5  1  0  0  0  0
 15 16  1  0  0  0  0
 16 11  1  0  0  0  0
 17 12  2  0  0  0  0
 18  9  1  0  0  0  0
 19  9  2  0  0  0  0
 20 15  2  0  0  0  0
 21 24  2  0  0  0  0
 22 19  1  0  0  0  0
 23 18  2  0  0  0  0
 24 20  1  0  0  0  0
 25 22  2  0  0  0  0
 26  6  1  0  0  0  0
 27 11  1  0  0  0  0
  4  3  1  0  0  0  0
 23 25  1  0  0  0  0
 17 21  1  0  0  0  0
M  END
> <#>
1512

> <PLATE>
LAT019

> <ROW>
H

> <COL>
10

> <COORD>
H10

> <LATID>
LAT019H10

> <Supplier>
Chembridge

> <Suplier_CAT#>
7784795

> <Name>
Novel

> <Concentration_(mM)>
2.5

> <IC50_(µM)>
inactive

> <Yeast_Active?>
-

> <Pubchem_CID>
1534286

$$$$
