
  -ISIS-  08130814242D

 21 22  0  0  0  0  0  0  0  0999 V2000
    3.4167   -0.9292    0.0000 N   0  0  0  0  0  0  0  0  0  0  0  0
    5.5917   -2.1875    0.0000 C   0  0  0  0  0  0  0  0  0  0  0  0
    3.4250   -1.5542    0.0000 C   0  0  0  0  0  0  0  0  0  0  0  0
    3.4250   -2.1792    0.0000 C   0  0  0  0  0  0  0  0  0  0  0  0
    6.1292   -3.1167    0.0000 N   0  0  0  0  0  0  0  0  0  0  0  0
    6.1292   -2.4917    0.0000 N   0  0  0  0  0  0  0  0  0  0  0  0
    3.9667   -2.4917    0.0000 C   0  0  0  0  0  0  0  0  0  0  0  0
    4.5042   -2.1875    0.0000 O   0  0  0  0  0  0  0  0  0  0  0  0
    5.5917   -1.5625    0.0000 O   0  0  0  0  0  0  0  0  0  0  0  0
    5.0500   -2.4917    0.0000 C   0  0  0  0  0  0  0  0  0  0  0  0
    6.6750   -3.4375    0.0000 C   0  0  0  0  0  0  0  0  0  0  0  0
    6.6750   -4.0625    0.0000 C   0  0  0  0  0  0  0  0  0  0  0  0
    2.8792   -2.4917    0.0000 C   0  0  0  0  0  0  0  0  0  0  0  0
    3.9667   -3.1292    0.0000 C   0  0  0  0  0  0  0  0  0  0  0  0
    6.1292   -4.3667    0.0000 C   0  0  0  0  0  0  0  0  0  0  0  0
    7.2167   -4.3667    0.0000 C   0  0  0  0  0  0  0  0  0  0  0  0
    2.8792   -3.1292    0.0000 C   0  0  0  0  0  0  0  0  0  0  0  0
    3.4250   -3.4375    0.0000 C   0  0  0  0  0  0  0  0  0  0  0  0
    7.2125   -4.9917    0.0000 C   0  0  0  0  0  0  0  0  0  0  0  0
    6.1292   -4.9917    0.0000 C   0  0  0  0  0  0  0  0  0  0  0  0
    6.6667   -5.3125    0.0000 C   0  0  0  0  0  0  0  0  0  0  0  0
  2 10  1  0  0  0  0
  3  1  3  0  0  0  0
  4  3  1  0  0  0  0
  5  6  1  0  0  0  0
  6  2  1  0  0  0  0
  7  4  1  0  0  0  0
  8  7  1  0  0  0  0
  9  2  2  0  0  0  0
 10  8  1  0  0  0  0
 11  5  2  0  0  0  0
 12 11  1  0  0  0  0
 13  4  2  0  0  0  0
 14  7  2  0  0  0  0
 15 12  1  0  0  0  0
 16 12  2  0  0  0  0
 17 13  1  0  0  0  0
 18 17  2  0  0  0  0
 19 16  1  0  0  0  0
 20 15  2  0  0  0  0
 21 19  2  0  0  0  0
 14 18  1  0  0  0  0
 20 21  1  0  0  0  0
M  END
> <#>
1960

> <PLATE>
LAT025

> <ROW>
H

> <COL>
6

> <COORD>
H06

> <LATID>
LAT025H06

> <Supplier>
Chembridge

> <Suplier_CAT#>
5231719

> <Concentration_(mM)>
2.5

> <IC50_(µM)>
inactive

> <Yeast_Active?>
-

> <Pubchem_CID>
789568

$$$$
