
  -ISIS-  08130814242D

 21 22  0  0  0  0  0  0  0  0999 V2000
   -1.7208    1.6833    0.0000 N   0  3  0  0  0  0  0  0  0  0  0  0
   -2.1833    0.9208    0.0000 C   0  0  0  0  0  0  0  0  0  0  0  0
   -4.3833    0.1625    0.0000 C   0  0  3  0  0  0  0  0  0  0  0  0
   -3.0625    0.9208    0.0000 C   0  0  0  0  0  0  0  0  0  0  0  0
   -3.5000    0.1625    0.0000 C   0  0  0  0  0  0  0  0  0  0  0  0
   -1.7458    0.1625    0.0000 C   0  0  0  0  0  0  0  0  0  0  0  0
   -2.1625    2.4458    0.0000 O   0  5  0  0  0  0  0  0  0  0  0  0
   -0.8458    0.1625    0.0000 N   0  0  0  0  0  0  0  0  0  0  0  0
   -0.8458    1.6833    0.0000 O   0  0  0  0  0  0  0  0  0  0  0  0
    1.8000   -1.4000    0.0000 N   0  0  0  0  0  0  0  0  0  0  0  0
   -3.0625   -0.6167    0.0000 C   0  0  0  0  0  0  0  0  0  0  0  0
   -2.1833   -0.6167    0.0000 C   0  0  0  0  0  0  0  0  0  0  0  0
   -5.2708    0.1625    0.0000 F   0  0  0  0  0  0  0  0  0  0  0  0
   -4.3833    1.0458    0.0000 F   0  0  0  0  0  0  0  0  0  0  0  0
   -4.3833   -0.7375    0.0000 F   0  0  0  0  0  0  0  0  0  0  0  0
    0.4792   -0.6167    0.0000 C   0  0  0  0  0  0  0  0  0  0  0  0
   -0.4000   -0.6167    0.0000 C   0  0  0  0  0  0  0  0  0  0  0  0
    0.9042   -1.3875    0.0000 C   0  0  0  0  0  0  0  0  0  0  0  0
    2.2542   -0.6292    0.0000 C   0  0  0  0  0  0  0  0  0  0  0  0
    0.9292    0.1500    0.0000 C   0  0  0  0  0  0  0  0  0  0  0  0
    1.8167    0.1333    0.0000 C   0  0  0  0  0  0  0  0  0  0  0  0
  2  1  1  0  0  0  0
  3  5  1  0  0  0  0
  4  2  2  0  0  0  0
  5  4  1  0  0  0  0
  6  2  1  0  0  0  0
  7  1  1  0  0  0  0
  8  6  1  0  0  0  0
  9  1  2  0  0  0  0
 10 18  2  0  0  0  0
 11 12  1  0  0  0  0
 12  6  2  0  0  0  0
 13  3  1  0  0  0  0
 14  3  1  0  0  0  0
 15  3  1  0  0  0  0
 16 17  1  0  0  0  0
 17  8  1  0  0  0  0
 18 16  1  0  0  0  0
 19 21  2  0  0  0  0
 20 16  2  0  0  0  0
 21 20  1  0  0  0  0
  5 11  2  0  0  0  0
 19 10  1  0  0  0  0
M  CHG  2   1   1   7  -1
M  END
> <#>
1047

> <PLATE>
LAT014

> <ROW>
G

> <COL>
2

> <COORD>
G02

> <LATID>
LAT014G02

> <Supplier>
Chembridge

> <Suplier_CAT#>
5405132

> <Name>
Novel

> <Concentration_(mM)>
2.5

> <IC50_(µM)>
39

> <Yeast_Active?>
-

> <Pubchem_CID>
2845047

$$$$
