
  -ISIS-  08130814242D

 21 22  0  0  0  0  0  0  0  0999 V2000
   -0.2458    1.6625    0.0000 C   0  0  0  0  0  0  0  0  0  0  0  0
   -1.1833    1.6625    0.0000 C   0  0  0  0  0  0  0  0  0  0  0  0
    0.2375    0.8458    0.0000 N   0  0  0  0  0  0  0  0  0  0  0  0
    1.2000    0.8458    0.0000 N   0  0  0  0  0  0  0  0  0  0  0  0
    2.6375   -1.6542    0.0000 N   0  0  3  0  0  0  0  0  0  0  0  0
   -1.6625    2.4833    0.0000 N   0  0  0  0  0  0  0  0  0  0  0  0
    1.6667    0.0208    0.0000 C   0  0  0  0  0  0  0  0  0  0  0  0
    0.2375    2.4833    0.0000 O   0  0  0  0  0  0  0  0  0  0  0  0
   -4.0458    1.6500    0.0000 N   0  0  0  0  0  0  0  0  0  0  0  0
   -1.6625    0.8458    0.0000 O   0  0  0  0  0  0  0  0  0  0  0  0
    2.6375    0.0208    0.0000 C   0  0  0  0  0  0  0  0  0  0  0  0
    1.2000   -0.8167    0.0000 C   0  0  0  0  0  0  0  0  0  0  0  0
    3.1167   -0.8042    0.0000 C   0  0  0  0  0  0  0  0  0  0  0  0
    1.6667   -1.6500    0.0000 C   0  0  0  0  0  0  0  0  0  0  0  0
   -2.6125    2.4833    0.0000 C   0  0  0  0  0  0  0  0  0  0  0  0
   -3.0833    1.6625    0.0000 C   0  0  0  0  0  0  0  0  0  0  0  0
    3.1042   -2.4875    0.0000 C   0  0  0  0  0  0  0  0  0  0  0  0
   -4.5208    0.8333    0.0000 C   0  0  0  0  0  0  0  0  0  0  0  0
   -2.6125    0.8333    0.0000 C   0  0  0  0  0  0  0  0  0  0  0  0
   -4.0458   -0.0042    0.0000 C   0  0  0  0  0  0  0  0  0  0  0  0
   -3.0833    0.0125    0.0000 C   0  0  0  0  0  0  0  0  0  0  0  0
  2  1  1  0  0  0  0
  3  1  1  0  0  0  0
  4  3  1  0  0  0  0
  5 14  1  0  0  0  0
  6  2  1  0  0  0  0
  7  4  2  0  0  0  0
  8  1  2  0  0  0  0
  9 16  2  0  0  0  0
 10  2  2  0  0  0  0
 11  7  1  0  0  0  0
 12  7  1  0  0  0  0
 13 11  1  0  0  0  0
 14 12  1  0  0  0  0
 15  6  1  0  0  0  0
 16 15  1  0  0  0  0
 17  5  1  0  0  0  0
 18  9  1  0  0  0  0
 19 16  1  0  0  0  0
 20 21  1  0  0  0  0
 21 19  2  0  0  0  0
  5 13  1  0  0  0  0
 20 18  2  0  0  0  0
M  END
> <#>
1406

> <PLATE>
LAT018

> <ROW>
F

> <COL>
7

> <COORD>
F07

> <LATID>
LAT018F07

> <Supplier>
Chembridge

> <Suplier_CAT#>
5605507

> <Name>
Novel

> <Sec_Name>
183_A05

> <Concentration_(mM)>
2.5

> <IC50_(µM)>
inactive

> <Yeast_Active?>
-

> <Pubchem_CID>
2854841

$$$$
