
  -ISIS-  08130814242D

 21 21  0  0  0  0  0  0  0  0999 V2000
   -0.8125   -3.1542    0.0000 C   0  0  0  0  0  0  0  0  0  0  0  0
   -2.3500   -3.4542    0.0000 C   0  0  0  0  0  0  0  0  0  0  0  0
   -1.8458   -3.1542    0.0000 N   0  0  3  0  0  0  0  0  0  0  0  0
   -1.3333   -3.4542    0.0000 N   0  0  3  0  0  0  0  0  0  0  0  0
   -0.3000   -3.4500    0.0000 N   0  0  3  0  0  0  0  0  0  0  0  0
   -0.8125   -2.5667    0.0000 S   0  0  0  0  0  0  0  0  0  0  0  0
   -2.8625   -3.1542    0.0000 C   0  0  0  0  0  0  0  0  0  0  0  0
   -2.3500   -4.0500    0.0000 O   0  0  0  0  0  0  0  0  0  0  0  0
    0.2000   -3.1542    0.0000 C   0  0  3  0  0  0  0  0  0  0  0  0
   -3.3833   -3.4542    0.0000 C   0  0  0  0  0  0  0  0  0  0  0  0
   -2.8625   -2.5667    0.0000 C   0  0  0  0  0  0  0  0  0  0  0  0
   -3.8958   -3.1542    0.0000 C   0  0  0  0  0  0  0  0  0  0  0  0
   -3.3833   -2.2667    0.0000 C   0  0  0  0  0  0  0  0  0  0  0  0
   -3.8958   -2.5667    0.0000 C   0  0  0  0  0  0  0  0  0  0  0  0
    0.7000   -3.4875    0.0000 C   0  0  0  0  0  0  0  0  0  0  0  0
   -0.0500   -2.6000    0.0000 C   0  0  0  0  0  0  0  0  0  0  0  0
    0.7167   -2.9375    0.0000 C   0  0  0  0  0  0  0  0  0  0  0  0
   -4.4083   -2.2792    0.0000 C   0  0  0  0  0  0  0  0  0  0  0  0
   -1.3208   -4.0500    0.0000 H   0  0  0  0  0  0  0  0  0  0  0  0
   -1.8458   -2.5667    0.0000 H   0  0  0  0  0  0  0  0  0  0  0  0
   -0.3000   -4.0500    0.0000 H   0  0  0  0  0  0  0  0  0  0  0  0
  2  3  1  0  0  0  0
  3  4  1  0  0  0  0
  4  1  1  0  0  0  0
  5  1  1  0  0  0  0
  6  1  2  0  0  0  0
  7  2  1  0  0  0  0
  8  2  2  0  0  0  0
  9  5  1  0  0  0  0
 10  7  1  0  0  0  0
 11  7  2  0  0  0  0
 12 10  2  0  0  0  0
 13 11  1  0  0  0  0
 14 13  2  0  0  0  0
 15  9  1  0  0  0  0
 16  9  1  0  0  0  0
 17  9  1  0  0  0  0
 18 14  1  0  0  0  0
 19  4  1  0  0  0  0
 20  3  1  0  0  0  0
 21  5  1  0  0  0  0
 12 14  1  0  0  0  0
M  END
> <#>
831

> <PLATE>
LAT011

> <ROW>
G

> <COL>
5

> <COORD>
G05

> <LATID>
LAT011G05

> <Supplier>
Chembridge

> <Suplier_CAT#>
5632403

> <Name>
Novel

> <Sec_Name>
193_G04

> <Concentration_(mM)>
2.5

> <IC50_(µM)>
12

> <Yeast_Active?>
-

> <Pubchem_CID>
2856962

$$$$
