
  -ISIS-  08130814242D

 21 23  0  0  0  0  0  0  0  0999 V2000
    7.1124   -3.5069    0.0000 C   0  0  0  0  0  0  0  0  0  0  0  0
    7.1124   -4.3993    0.0000 C   0  0  0  0  0  0  0  0  0  0  0  0
    6.3397   -4.8454    0.0000 C   0  0  0  0  0  0  0  0  0  0  0  0
    6.3397   -5.7377    0.0000 O   0  0  0  0  0  0  0  0  0  0  0  0
    5.5669   -4.3993    0.0000 C   0  0  0  0  0  0  0  0  0  0  0  0
    4.7941   -4.8454    0.0000 C   0  0  0  0  0  0  0  0  0  0  0  0
    4.7941   -5.7377    0.0000 O   0  0  0  0  0  0  0  0  0  0  0  0
    4.0213   -4.3993    0.0000 C   0  0  0  0  0  0  0  0  0  0  0  0
    4.0213   -3.5069    0.0000 C   0  0  0  0  0  0  0  0  0  0  0  0
    3.2486   -3.0608    0.0000 O   0  0  0  0  0  0  0  0  0  0  0  0
    4.7941   -3.0608    0.0000 C   0  0  0  0  0  0  0  0  0  0  0  0
    5.5669   -3.5069    0.0000 C   0  0  0  0  0  0  0  0  0  0  0  0
    6.3397   -3.0608    0.0000 O   0  0  0  0  0  0  0  0  0  0  0  0
    7.8852   -3.0608    0.0000 C   0  0  0  0  0  0  0  0  0  0  0  0
    7.8852   -2.1685    0.0000 C   0  0  0  0  0  0  0  0  0  0  0  0
    8.6580   -1.7223    0.0000 C   0  0  0  0  0  0  0  0  0  0  0  0
    8.6580   -0.8300    0.0000 O   0  0  0  0  0  0  0  0  0  0  0  0
    9.4307   -2.1685    0.0000 C   0  0  0  0  0  0  0  0  0  0  0  0
   10.2035   -1.7223    0.0000 O   0  0  0  0  0  0  0  0  0  0  0  0
    9.4307   -3.0608    0.0000 C   0  0  0  0  0  0  0  0  0  0  0  0
    8.6580   -3.5069    0.0000 C   0  0  0  0  0  0  0  0  0  0  0  0
  1  2  2  0  0  0  0
  2  3  1  0  0  0  0
  3  4  2  0  0  0  0
  3  5  1  0  0  0  0
  5  6  1  0  0  0  0
  6  7  1  0  0  0  0
  6  8  2  0  0  0  0
  8  9  1  0  0  0  0
  9 10  1  0  0  0  0
  9 11  2  0  0  0  0
 11 12  1  0  0  0  0
  5 12  2  0  0  0  0
 12 13  1  0  0  0  0
  1 13  1  0  0  0  0
  1 14  1  0  0  0  0
 14 15  1  0  0  0  0
 15 16  2  0  0  0  0
 16 17  1  0  0  0  0
 16 18  1  0  0  0  0
 18 19  1  0  0  0  0
 18 20  2  0  0  0  0
 20 21  1  0  0  0  0
 14 21  2  0  0  0  0
M  END
> <#>
478

> <PLATE>
LAT006

> <ROW>
F

> <COL>
11

> <COORD>
F11

> <LATID>
LAT006F11

> <Supplier>
Sigma

> <Suplier_CAT#>
L9283

> <Name>
Luteolin

> <Concentration_(mM)>
2.5

> <IC50_(µM)>
inactive

> <Yeast_Active?>
-

> <Pubchem_CID>
5280445

$$$$
