
  -ISIS-  08130814242D

 19 21  0  0  0  0  0  0  0  0999 V2000
    1.4375   -1.3042    0.0000 C   0  0  0  0  0  0  0  0  0  0  0  0
    0.7500   -0.3375    0.0000 C   0  0  0  0  0  0  0  0  0  0  0  0
   -0.3500   -0.7000    0.0000 C   0  0  0  0  0  0  0  0  0  0  0  0
    0.7500   -2.2375    0.0000 S   0  0  0  0  0  0  0  0  0  0  0  0
   -0.3708   -1.8792    0.0000 C   0  0  0  0  0  0  0  0  0  0  0  0
    2.6167   -1.1875    0.0000 C   0  0  0  0  0  0  0  0  0  0  0  0
    1.2542    0.7208    0.0000 N   0  0  0  0  0  0  0  0  0  0  0  0
    3.1167   -0.1167    0.0000 O   0  0  0  0  0  0  0  0  0  0  0  0
   -1.4000   -2.4542    0.0000 N   0  0  0  0  0  0  0  0  0  0  0  0
    2.4292    0.8458    0.0000 C   0  0  0  0  0  0  0  0  0  0  0  0
   -1.3833   -0.0875    0.0000 C   0  0  0  0  0  0  0  0  0  0  0  0
   -2.4125   -0.6875    0.0000 C   0  0  0  0  0  0  0  0  0  0  0  0
   -2.4125   -1.8500    0.0000 C   0  0  0  0  0  0  0  0  0  0  0  0
    3.3375   -2.1667    0.0000 O   0  0  0  0  0  0  0  0  0  0  0  0
   -1.3708    1.0708    0.0000 C   0  0  0  0  0  0  0  0  0  0  0  0
    2.9042    1.9625    0.0000 C   0  0  0  0  0  0  0  0  0  0  0  0
   -2.4458    1.6500    0.0000 O   0  0  0  0  0  0  0  0  0  0  0  0
   -3.4708   -2.4167    0.0000 C   0  0  0  0  0  0  0  0  0  0  0  0
   -2.4500    2.7500    0.0000 C   0  0  0  0  0  0  0  0  0  0  0  0
  2  1  2  0  0  0  0
  3  2  1  0  0  0  0
  4  1  1  0  0  0  0
  5  4  1  0  0  0  0
  6  1  1  0  0  0  0
  7  2  1  0  0  0  0
  8  6  1  0  0  0  0
  9  5  2  0  0  0  0
 10  8  1  0  0  0  0
 11  3  2  0  0  0  0
 12 11  1  0  0  0  0
 13  9  1  0  0  0  0
 14  6  2  0  0  0  0
 15 11  1  0  0  0  0
 16 10  1  0  0  0  0
 17 15  1  0  0  0  0
 18 13  1  0  0  0  0
 19 17  1  0  0  0  0
  5  3  1  0  0  0  0
 10  7  2  0  0  0  0
 13 12  2  0  0  0  0
M  END
> <#>
1104

> <PLATE>
LAT014

> <ROW>
H

> <COL>
9

> <COORD>
H09

> <LATID>
LAT014H09

> <Supplier>
Chembridge

> <Suplier_CAT#>
5170074

> <Name>
Novel

> <Concentration_(mM)>
2.5

> <IC50_(µM)>
inactive

> <Yeast_Active?>
-

> <Pubchem_CID>
NULL

$$$$
