
  -ISIS-  08130814242D

 26 28  0  0  0  0  0  0  0  0999 V2000
   -0.9125   -0.6000    0.0000 C   0  0  0  0  0  0  0  0  0  0  0  0
   -0.9125    0.1833    0.0000 C   0  0  0  0  0  0  0  0  0  0  0  0
   -1.5958   -1.0000    0.0000 C   0  0  0  0  0  0  0  0  0  0  0  0
   -1.5958    0.5833    0.0000 C   0  0  0  0  0  0  0  0  0  0  0  0
   -2.2708    0.2000    0.0000 C   0  0  0  0  0  0  0  0  0  0  0  0
   -0.2333   -1.0000    0.0000 C   0  0  0  0  0  0  0  0  0  0  0  0
   -2.2708   -0.6167    0.0000 C   0  0  0  0  0  0  0  0  0  0  0  0
    2.4875    1.3458    0.0000 C   0  0  0  0  0  0  0  0  0  0  0  0
    0.4667   -0.6167    0.0000 C   0  0  0  0  0  0  0  0  0  0  0  0
   -0.2333   -1.7792    0.0000 O   0  0  0  0  0  0  0  0  0  0  0  0
    3.0500    1.9000    0.0000 C   0  0  0  0  0  0  0  0  0  0  0  0
    1.7875    1.7208    0.0000 C   0  0  0  0  0  0  0  0  0  0  0  0
    2.4875    0.5625    0.0000 C   0  0  0  0  0  0  0  0  0  0  0  0
    0.4667    0.1625    0.0000 O   0  0  0  0  0  0  0  0  0  0  0  0
   -0.2500    0.6000    0.0000 O   0  0  0  0  0  0  0  0  0  0  0  0
    1.1500    0.5625    0.0000 C   0  0  0  0  0  0  0  0  0  0  0  0
   -2.9500    0.6208    0.0000 O   0  0  0  0  0  0  0  0  0  0  0  0
    1.8292    0.1833    0.0000 C   0  0  0  0  0  0  0  0  0  0  0  0
    1.1292    1.3208    0.0000 C   0  0  0  0  0  0  0  0  0  0  0  0
   -2.9500   -1.0375    0.0000 C   0  0  0  0  0  0  0  0  0  0  0  0
    3.7292    1.5208    0.0000 C   0  0  0  0  0  0  0  0  0  0  0  0
    3.0292    2.6625    0.0000 C   0  0  0  0  0  0  0  0  0  0  0  0
   -3.6333   -0.6542    0.0000 C   0  0  0  0  0  0  0  0  0  0  0  0
    3.6875    3.0625    0.0000 C   0  0  0  0  0  0  0  0  0  0  0  0
    4.3875    1.9458    0.0000 C   0  0  0  0  0  0  0  0  0  0  0  0
    4.3667    2.7208    0.0000 C   0  0  0  0  0  0  0  0  0  0  0  0
  2  1  2  0  0  0  0
  3  1  1  0  0  0  0
  4  2  1  0  0  0  0
  5  7  1  0  0  0  0
  6  1  1  0  0  0  0
  7  3  2  0  0  0  0
  8 12  1  0  0  0  0
  9  6  1  0  0  0  0
 10  6  2  0  0  0  0
 11  8  1  0  0  0  0
 12 19  2  0  0  0  0
 13 18  1  0  0  0  0
 14  9  1  0  0  0  0
 15  2  1  0  0  0  0
 16 14  1  0  0  0  0
 17  5  1  0  0  0  0
 18 16  2  0  0  0  0
 19 16  1  0  0  0  0
 20  7  1  0  0  0  0
 21 11  2  0  0  0  0
 22 11  1  0  0  0  0
 23 20  1  0  0  0  0
 24 22  2  0  0  0  0
 25 21  1  0  0  0  0
 26 24  1  0  0  0  0
  4  5  2  0  0  0  0
  8 13  2  0  0  0  0
 26 25  2  0  0  0  0
M  END
> <#>
1295

> <PLATE>
LAT017

> <ROW>
G

> <COL>
3

> <COORD>
G03

> <LATID>
LAT017G03

> <Supplier>
Chembridge

> <Suplier_CAT#>
6946464

> <Name>
Novel

> <Concentration_(mM)>
2.5

> <IC50_(µM)>
>100

> <Yeast_Active?>
-

> <Pubchem_CID>
801095

$$$$
