
  -ISIS-  08130814242D

 32 36  0  0  0  0  0  0  0  0999 V2000
    0.3167   -1.6042    0.0000 N   0  0  3  0  0  0  0  0  0  0  0  0
    0.8000   -2.3542    0.0000 C   0  0  0  0  0  0  0  0  0  0  0  0
   -0.5458   -1.6042    0.0000 N   0  0  0  0  0  0  0  0  0  0  0  0
   -0.1000   -0.2875    0.0000 C   0  0  0  0  0  0  0  0  0  0  0  0
    0.6000   -0.8000    0.0000 C   0  0  0  0  0  0  0  0  0  0  0  0
   -0.8208   -0.7667    0.0000 C   0  0  0  0  0  0  0  0  0  0  0  0
    1.6542   -2.3000    0.0000 N   0  0  0  0  0  0  0  0  0  0  0  0
    0.6000   -3.2000    0.0000 S   0  0  0  0  0  0  0  0  0  0  0  0
    2.0000   -3.1042    0.0000 C   0  0  0  0  0  0  0  0  0  0  0  0
    1.3167   -3.6792    0.0000 C   0  0  0  0  0  0  0  0  0  0  0  0
   -0.1000    0.6125    0.0000 C   0  0  0  0  0  0  0  0  0  0  0  0
   -1.6458   -0.5292    0.0000 C   0  0  0  0  0  0  0  0  0  0  0  0
    1.4375   -0.5292    0.0000 O   0  0  0  0  0  0  0  0  0  0  0  0
   -1.6208    3.2500    0.0000 N   0  0  0  0  0  0  0  0  0  0  0  0
   -0.8625    1.0333    0.0000 N   0  0  0  0  0  0  0  0  0  0  0  0
   -2.2833   -1.1292    0.0000 C   0  0  0  0  0  0  0  0  0  0  0  0
   -1.8625    0.3125    0.0000 C   0  0  0  0  0  0  0  0  0  0  0  0
   -1.6208    2.3500    0.0000 C   0  0  0  0  0  0  0  0  0  0  0  0
   -3.3000   -0.0500    0.0000 C   0  0  0  0  0  0  0  0  0  0  0  0
   -3.1000   -0.8875    0.0000 C   0  0  0  0  0  0  0  0  0  0  0  0
   -2.6833    0.5500    0.0000 C   0  0  0  0  0  0  0  0  0  0  0  0
   -4.1625    0.1625    0.0000 O   0  0  0  0  0  0  0  0  0  0  0  0
   -0.8625    1.9333    0.0000 C   0  0  0  0  0  0  0  0  0  0  0  0
    2.8000   -3.4042    0.0000 C   0  0  0  0  0  0  0  0  0  0  0  0
    1.4792   -4.5167    0.0000 C   0  0  0  0  0  0  0  0  0  0  0  0
   -2.3833    3.6708    0.0000 C   0  0  0  0  0  0  0  0  0  0  0  0
   -2.3833    1.9333    0.0000 C   0  0  0  0  0  0  0  0  0  0  0  0
   -4.7708   -0.4667    0.0000 C   0  0  0  0  0  0  0  0  0  0  0  0
   -3.1458    3.2500    0.0000 C   0  0  0  0  0  0  0  0  0  0  0  0
    2.2792   -4.8500    0.0000 C   0  0  0  0  0  0  0  0  0  0  0  0
    2.9542   -4.2792    0.0000 C   0  0  0  0  0  0  0  0  0  0  0  0
   -3.1458    2.3500    0.0000 C   0  0  0  0  0  0  0  0  0  0  0  0
  2  1  1  0  0  0  0
  3  1  1  0  0  0  0
  4  5  1  0  0  0  0
  5  1  1  0  0  0  0
  6  3  2  0  0  0  0
  7  2  2  0  0  0  0
  8  2  1  0  0  0  0
  9  7  1  0  0  0  0
 10  8  1  0  0  0  0
 11  4  2  0  0  0  0
 12  6  1  0  0  0  0
 13  5  2  0  0  0  0
 14 18  1  0  0  0  0
 15 11  1  0  0  0  0
 16 12  2  0  0  0  0
 17 12  1  0  0  0  0
 18 23  1  0  0  0  0
 19 21  1  0  0  0  0
 20 16  1  0  0  0  0
 21 17  2  0  0  0  0
 22 19  1  0  0  0  0
 23 15  1  0  0  0  0
 24  9  1  0  0  0  0
 25 10  1  0  0  0  0
 26 14  2  0  0  0  0
 27 18  2  0  0  0  0
 28 22  1  0  0  0  0
 29 32  2  0  0  0  0
 30 25  2  0  0  0  0
 31 24  2  0  0  0  0
 32 27  1  0  0  0  0
  6  4  1  0  0  0  0
 10  9  2  0  0  0  0
 19 20  2  0  0  0  0
 30 31  1  0  0  0  0
 29 26  1  0  0  0  0
M  END
> <#>
1560

> <PLATE>
LAT020

> <ROW>
H

> <COL>
6

> <COORD>
H06

> <LATID>
LAT020H06

> <Supplier>
Chembridge

> <Suplier_CAT#>
7099860

> <Name>
Novel

> <Concentration_(mM)>
2.5

> <IC50_(µM)>
inactive

> <Yeast_Active?>
-

> <Pubchem_CID>
NULL

$$$$
