
  -ISIS-  08130814242D

 19 20  0  0  0  0  0  0  0  0999 V2000
    6.2167    0.5208    0.0000 C   0  0  0  0  0  0  0  0  0  0  0  0
    6.9625    0.5958    0.0000 N   0  3  0  0  0  0  0  0  0  0  0  0
    5.0292    0.7708    0.0000 N   0  0  3  0  0  0  0  0  0  0  0  0
    5.7167    1.0750    0.0000 C   0  0  0  0  0  0  0  0  0  0  0  0
    5.1042    0.0250    0.0000 N   0  0  0  0  0  0  0  0  0  0  0  0
    5.8417   -0.1292    0.0000 C   0  0  0  0  0  0  0  0  0  0  0  0
    4.3792    1.1458    0.0000 C   0  0  0  0  0  0  0  0  0  0  0  0
    3.7292    0.7708    0.0000 C   0  0  0  0  0  0  0  0  0  0  0  0
    7.4042   -0.0125    0.0000 O   0  5  0  0  0  0  0  0  0  0  0  0
    7.2667    1.2833    0.0000 O   0  0  0  0  0  0  0  0  0  0  0  0
    3.0792    1.1458    0.0000 N   0  0  0  0  0  0  0  0  0  0  0  0
    1.7792    1.8958    0.0000 N   0  0  0  0  0  0  0  0  0  0  0  0
    3.7292    0.0208    0.0000 O   0  0  0  0  0  0  0  0  0  0  0  0
    1.7792    1.1458    0.0000 C   0  0  0  0  0  0  0  0  0  0  0  0
    2.4292    0.7708    0.0000 C   0  0  0  0  0  0  0  0  0  0  0  0
    1.1292    2.2708    0.0000 C   0  0  0  0  0  0  0  0  0  0  0  0
    1.1292    0.7708    0.0000 C   0  0  0  0  0  0  0  0  0  0  0  0
    0.4792    1.8958    0.0000 C   0  0  0  0  0  0  0  0  0  0  0  0
    0.4792    1.1458    0.0000 C   0  0  0  0  0  0  0  0  0  0  0  0
  2  1  1  0  0  0  0
  3  4  1  0  0  0  0
  4  1  2  0  0  0  0
  5  6  2  0  0  0  0
  6  1  1  0  0  0  0
  7  3  1  0  0  0  0
  8  7  1  0  0  0  0
  9  2  1  0  0  0  0
 10  2  2  0  0  0  0
 11  8  1  0  0  0  0
 12 14  2  0  0  0  0
 13  8  2  0  0  0  0
 14 15  1  0  0  0  0
 15 11  1  0  0  0  0
 16 12  1  0  0  0  0
 17 14  1  0  0  0  0
 18 19  1  0  0  0  0
 19 17  2  0  0  0  0
  3  5  1  0  0  0  0
 16 18  2  0  0  0  0
M  CHG  2   2   1   9  -1
M  END
> <#>
1495

> <PLATE>
LAT019

> <ROW>
G

> <COL>
8

> <COORD>
G08

> <LATID>
LAT019G08

> <Supplier>
Chembridge

> <Suplier_CAT#>
7986044

> <Name>
Novel

> <Concentration_(mM)>
2.5

> <IC50_(µM)>
inactive

> <Yeast_Active?>
-

> <Pubchem_CID>
2982993

$$$$
