
  -ISIS-  08130814242D

 21 22  0  0  0  0  0  0  0  0999 V2000
    2.3292   -2.5542    0.0000 C   0  0  0  0  0  0  0  0  0  0  0  0
    3.0417   -2.9667    0.0000 C   0  0  0  0  0  0  0  0  0  0  0  0
    2.3292   -1.7250    0.0000 C   0  0  0  0  0  0  0  0  0  0  0  0
    1.6125   -1.3125    0.0000 C   0  0  0  0  0  0  0  0  0  0  0  0
    1.6125   -2.9667    0.0000 C   0  0  0  0  0  0  0  0  0  0  0  0
    5.8917   -2.9542    0.0000 C   0  0  0  0  0  0  0  0  0  0  0  0
    3.7542   -2.5500    0.0000 C   0  0  0  0  0  0  0  0  0  0  0  0
    5.9000   -3.7792    0.0000 C   0  0  0  0  0  0  0  0  0  0  0  0
    5.1792   -2.5417    0.0000 C   0  0  0  0  0  0  0  0  0  0  0  0
    4.4750   -2.9625    0.0000 C   0  0  0  0  0  0  0  0  0  0  0  0
    3.0417   -3.7917    0.0000 O   0  0  0  0  0  0  0  0  0  0  0  0
    5.1875   -4.1917    0.0000 C   0  0  0  0  0  0  0  0  0  0  0  0
    0.9000   -1.7250    0.0000 C   0  0  0  0  0  0  0  0  0  0  0  0
    3.0417   -1.3042    0.0000 O   0  0  0  0  0  0  0  0  0  0  0  0
    0.9000   -2.5542    0.0000 C   0  0  0  0  0  0  0  0  0  0  0  0
    4.4667   -3.7875    0.0000 C   0  0  0  0  0  0  0  0  0  0  0  0
    6.6042   -2.5375    0.0000 O   0  0  0  0  0  0  0  0  0  0  0  0
    6.6167   -4.1917    0.0000 O   0  0  0  0  0  0  0  0  0  0  0  0
    0.1875   -1.3167    0.0000 O   0  0  0  0  0  0  0  0  0  0  0  0
    7.3250   -2.9417    0.0000 C   0  0  0  0  0  0  0  0  0  0  0  0
    6.6167   -5.0167    0.0000 C   0  0  0  0  0  0  0  0  0  0  0  0
  2  1  1  0  0  0  0
  3  1  1  0  0  0  0
  4  3  2  0  0  0  0
  5  1  2  0  0  0  0
  6  9  2  0  0  0  0
  7  2  1  0  0  0  0
  8 12  2  0  0  0  0
  9 10  1  0  0  0  0
 10  7  1  0  0  0  0
 11  2  2  0  0  0  0
 12 16  1  0  0  0  0
 13 15  2  0  0  0  0
 14  3  1  0  0  0  0
 15  5  1  0  0  0  0
 16 10  2  0  0  0  0
 17  6  1  0  0  0  0
 18  8  1  0  0  0  0
 19 13  1  0  0  0  0
 20 17  1  0  0  0  0
 21 18  1  0  0  0  0
 13  4  1  0  0  0  0
  8  6  1  0  0  0  0
M  END
> <#>
1259

> <PLATE>
LAT016

> <ROW>
C

> <COL>
9

> <COORD>
C09

> <LATID>
LAT016C09

> <Supplier>
Chembridge

> <Suplier_CAT#>
6432236

> <Name>
Novel

> <Concentration_(mM)>
2.5

> <IC50_(µM)>
>100

> <Yeast_Active?>
-

> <Pubchem_CID>
689038

$$$$
