
  -ISIS-  08130814242D

 33 36  0  0  0  0  0  0  0  0999 V2000
   -1.2270   -2.6487    0.0000 C   0  0  0  0  0  0  0  0  0  0  0  0
   -2.3096   -3.2737    0.0000 C   0  0  0  0  0  0  0  0  0  0  0  0
   -2.3096   -4.5237    0.0000 C   0  0  1  0  0  0  0  0  0  0  0  0
   -3.3921   -5.1487    0.0000 O   0  0  0  0  0  0  0  0  0  0  0  0
   -1.2270   -5.1487    0.0000 C   0  0  0  0  0  0  0  0  0  0  0  0
   -0.1445   -4.5237    0.0000 C   0  0  1  0  0  0  0  0  0  0  0  0
   -0.1445   -5.7737    0.0000 H   0  0  0  0  0  0  0  0  0  0  0  0
    0.9380   -5.1487    0.0000 C   0  0  0  0  0  0  0  0  0  0  0  0
    2.0206   -4.5237    0.0000 C   0  0  1  0  0  0  0  0  0  0  0  0
    3.1031   -5.1487    0.0000 O   0  0  0  0  0  0  0  0  0  0  0  0
    2.0206   -3.2737    0.0000 C   0  0  1  0  0  0  0  0  0  0  0  0
    3.1031   -2.6487    0.0000 C   0  0  2  0  0  0  0  0  0  0  0  0
    4.2919   -3.0350    0.0000 C   0  0  0  0  0  0  0  0  0  0  0  0
    5.0267   -2.0237    0.0000 C   0  0  0  0  0  0  0  0  0  0  0  0
    4.2919   -1.0124    0.0000 C   0  0  2  0  0  0  0  0  0  0  0  0
    4.6782    0.1764    0.0000 C   0  0  1  0  0  0  0  0  0  0  0  0
    5.8856    0.4999    0.0000 C   0  0  0  0  0  0  0  0  0  0  0  0
    6.2091    1.7073    0.0000 C   0  0  0  0  0  0  0  0  0  0  0  0
    7.4165    2.0309    0.0000 C   0  0  0  0  0  0  0  0  0  0  0  0
    3.7943    1.0603    0.0000 C   0  0  0  0  0  0  0  0  0  0  0  0
    3.1031   -1.3987    0.0000 C   0  0  2  0  0  0  0  0  0  0  0  0
    3.1031   -0.1487    0.0000 C   0  0  0  0  0  0  0  0  0  0  0  0
    2.0206   -0.7737    0.0000 C   0  0  1  0  0  0  0  0  0  0  0  0
    2.0206    0.4763    0.0000 O   0  0  0  0  0  0  0  0  0  0  0  0
    0.9380   -1.3987    0.0000 C   0  0  0  0  0  0  0  0  0  0  0  0
    0.9380   -2.6487    0.0000 C   0  0  2  0  0  0  0  0  0  0  0  0
   -0.1445   -3.2737    0.0000 C   0  0  1  0  0  0  0  0  0  0  0  0
   -0.1445   -2.0237    0.0000 C   0  0  0  0  0  0  0  0  0  0  0  0
    8.3004    1.1470    0.0000 O   0  0  0  0  0  0  0  0  0  0  0  0
    7.7401    3.2383    0.0000 O   0  0  0  0  0  0  0  0  0  0  0  0
    0.9380   -3.8987    0.0000 H   0  0  0  0  0  0  0  0  0  0  0  0
    2.0206   -2.0237    0.0000 H   0  0  0  0  0  0  0  0  0  0  0  0
    3.1031   -3.8987    0.0000 H   0  0  0  0  0  0  0  0  0  0  0  0
  1  2  1  0  0  0  0
  2  3  1  0  0  0  0
  3  4  1  6  0  0  0
  3  5  1  0  0  0  0
  5  6  1  0  0  0  0
  6  7  1  1  0  0  0
  6  8  1  0  0  0  0
  8  9  1  0  0  0  0
  9 10  1  6  0  0  0
  9 11  1  0  0  0  0
 11 12  1  0  0  0  0
 12 13  1  0  0  0  0
 13 14  1  0  0  0  0
 15 14  1  1  0  0  0
 15 16  1  0  0  0  0
 16 17  1  0  0  0  0
 17 18  1  0  0  0  0
 18 19  1  0  0  0  0
 16 20  1  6  0  0  0
 15 21  1  0  0  0  0
 12 21  1  0  0  0  0
 21 22  1  1  0  0  0
 21 23  1  0  0  0  0
 23 24  1  6  0  0  0
 23 25  1  0  0  0  0
 25 26  1  0  0  0  0
 11 26  1  0  0  0  0
 26 27  1  0  0  0  0
  1 27  1  0  0  0  0
  6 27  1  0  0  0  0
 27 28  1  1  0  0  0
 19 29  2  0  0  0  0
 19 30  1  0  0  0  0
 26 31  1  6  0  0  0
 11 32  1  1  0  0  0
 12 33  1  6  0  0  0
M  END
> <#>
305

> <PLATE>
LAT004

> <ROW>
A

> <COL>
10

> <COORD>
A10

> <LATID>
LAT004A10

> <Supplier>
ICN

> <Suplier_CAT#>
102897

> <Name>
Cholic Acid

> <Concentration_(mM)>
2.5

> <IC50_(µM)>
inactive

> <Yeast_Active?>
-

> <Pubchem_CID>
303

$$$$
