
  -ISIS-  08130814242D

 23 24  0  0  0  0  0  0  0  0999 V2000
    0.4250    3.4853    0.0000 O   0  0  0  0  0  0  0  0  0  0  0  0
   -0.2000    2.4028    0.0000 C   0  0  0  0  0  0  0  0  0  0  0  0
    0.4250    1.3203    0.0000 C   0  0  2  0  0  0  0  0  0  0  0  0
    1.6750    1.3203    0.0000 C   0  0  1  0  0  0  0  0  0  0  0  0
    2.3000    2.4028    0.0000 O   0  0  0  0  0  0  0  0  0  0  0  0
    2.3000    0.2377    0.0000 C   0  0  2  0  0  0  0  0  0  0  0  0
    3.5500    0.2377    0.0000 O   0  0  0  0  0  0  0  0  0  0  0  0
    1.6750   -0.8448    0.0000 C   0  0  1  0  0  0  0  0  0  0  0  0
    2.3000   -1.9273    0.0000 O   0  0  0  0  0  0  0  0  0  0  0  0
    0.4250   -0.8448    0.0000 C   0  0  2  0  0  0  0  0  0  0  0  0
   -0.2000   -1.9273    0.0000 O   0  0  0  0  0  0  0  0  0  0  0  0
   -1.4500   -1.9273    0.0000 C   0  0  2  0  0  0  0  0  0  0  0  0
   -2.0750   -3.0099    0.0000 C   0  0  1  0  0  0  0  0  0  0  0  0
   -1.4500   -4.0924    0.0000 C   0  0  0  0  0  0  0  0  0  0  0  0
   -2.0750   -5.1749    0.0000 O   0  0  0  0  0  0  0  0  0  0  0  0
   -3.3250   -3.0099    0.0000 O   0  0  0  0  0  0  0  0  0  0  0  0
   -3.9500   -1.9273    0.0000 C   0  0  1  0  0  0  0  0  0  0  0  0
   -5.2000   -1.9273    0.0000 O   0  0  0  0  0  0  0  0  0  0  0  0
   -3.3250   -0.8448    0.0000 C   0  0  2  0  0  0  0  0  0  0  0  0
   -3.9500    0.2377    0.0000 O   0  0  0  0  0  0  0  0  0  0  0  0
   -2.0750   -0.8448    0.0000 C   0  0  1  0  0  0  0  0  0  0  0  0
   -1.4500    0.2377    0.0000 O   0  0  0  0  0  0  0  0  0  0  0  0
   -0.2000    0.2377    0.0000 O   0  0  0  0  0  0  0  0  0  0  0  0
  1  2  1  0  0  0  0
  3  2  1  6  0  0  0
  3  4  1  0  0  0  0
  4  5  1  1  0  0  0
  4  6  1  0  0  0  0
  6  7  1  6  0  0  0
  6  8  1  0  0  0  0
  8  9  1  1  0  0  0
  8 10  1  0  0  0  0
 10 11  1  6  0  0  0
 12 11  1  6  0  0  0
 12 13  1  0  0  0  0
 13 14  1  1  0  0  0
 14 15  1  0  0  0  0
 13 16  1  0  0  0  0
 16 17  1  0  0  0  0
 17 18  1  1  0  0  0
 17 19  1  0  0  0  0
 19 20  1  6  0  0  0
 19 21  1  0  0  0  0
 12 21  1  0  0  0  0
 21 22  1  1  0  0  0
 10 23  1  0  0  0  0
  3 23  1  0  0  0  0
M  END
> <#>
423

> <PLATE>
LAT006

> <ROW>
G

> <COL>
4

> <COORD>
G04

> <LATID>
LAT006G04

> <Supplier>
Nutirional Biochemicals

> <Suplier_CAT#>
Cellobiose

> <Name>
D (+) Cellobiose

> <Concentration_(mM)>
2.5

> <IC50_(µM)>
inactive

> <Yeast_Active?>
-

> <Pubchem_CID>
294

$$$$
