
  -ISIS-  08130814242D

 11 11  0  0  0  0  0  0  0  0999 V2000
    8.2875   -3.2188    0.0000 C   0  0  0  0  0  0  0  0  0  0  0  0
    7.0375   -3.2188    0.0000 C   0  0  0  0  0  0  0  0  0  0  0  0
    6.4125   -4.3013    0.0000 C   0  0  0  0  0  0  0  0  0  0  0  0
    5.1625   -4.3013    0.0000 C   0  0  0  0  0  0  0  0  0  0  0  0
    4.5375   -3.2187    0.0000 C   0  0  0  0  0  0  0  0  0  0  0  0
    5.1625   -2.1362    0.0000 C   0  0  0  0  0  0  0  0  0  0  0  0
    6.4125   -2.1362    0.0000 C   0  0  0  0  0  0  0  0  0  0  0  0
    8.9125   -2.1362    0.0000 O   0  0  0  0  0  0  0  0  0  0  0  0
    8.9125   -4.3013    0.0000 O   0  0  0  0  0  0  0  0  0  0  0  0
    4.5375   -1.0537    0.0000 O   0  0  0  0  0  0  0  0  0  0  0  0
    4.5375   -5.3838    0.0000 O   0  0  0  0  0  0  0  0  0  0  0  0
  1  2  1  0  0  0  0
  2  3  1  0  0  0  0
  3  4  2  0  0  0  0
  4  5  1  0  0  0  0
  5  6  2  0  0  0  0
  6  7  1  0  0  0  0
  2  7  2  0  0  0  0
  1  8  2  0  0  0  0
  1  9  1  0  0  0  0
  6 10  1  0  0  0  0
  4 11  1  0  0  0  0
M  END
> <#>
340

> <PLATE>
LAT005

> <ROW>
D

> <COL>
4

> <COORD>
D04

> <LATID>
LAT005D04

> <Supplier>
Aldrich

> <Suplier_CAT#>
D110000

> <Name>
3,5-Dihydroxybenzoic Acid

> <Concentration_(mM)>
2.5

> <IC50_(µM)>
inactive

> <Yeast_Active?>
-

> <Pubchem_CID>
7424

$$$$
