
  -ISIS-  08130814242D

 26 28  0  0  0  0  0  0  0  0999 V2000
    4.9500   -6.0042    0.0000 S   0  0  3  0  0  0  0  0  0  0  0  0
    5.6667   -5.5917    0.0000 C   0  0  0  0  0  0  0  0  0  0  0  0
    4.2375   -5.5792    0.0000 N   0  0  3  0  0  0  0  0  0  0  0  0
    6.3792   -6.0125    0.0000 C   0  0  0  0  0  0  0  0  0  0  0  0
    7.8167   -6.0250    0.0000 C   0  0  0  0  0  0  0  0  0  0  0  0
    7.1042   -5.6000    0.0000 C   0  0  0  0  0  0  0  0  0  0  0  0
    5.3542   -6.7167    0.0000 O   0  0  0  0  0  0  0  0  0  0  0  0
    4.5292   -6.7167    0.0000 O   0  0  0  0  0  0  0  0  0  0  0  0
    5.6667   -4.7542    0.0000 C   0  0  0  0  0  0  0  0  0  0  0  0
    8.5375   -5.6167    0.0000 N   0  0  0  0  0  0  0  0  0  0  0  0
   10.6667   -6.0417    0.0000 N   0  0  0  0  0  0  0  0  0  0  0  0
    7.8125   -6.8542    0.0000 O   0  0  0  0  0  0  0  0  0  0  0  0
    7.1125   -4.7667    0.0000 C   0  0  0  0  0  0  0  0  0  0  0  0
    6.3917   -4.3500    0.0000 C   0  0  0  0  0  0  0  0  0  0  0  0
    2.8167   -4.7500    0.0000 O   0  0  0  0  0  0  0  0  0  0  0  0
    4.2417   -4.7625    0.0000 C   0  0  0  0  0  0  0  0  0  0  0  0
    3.5250   -6.0000    0.0000 C   0  0  0  0  0  0  0  0  0  0  0  0
    9.2417   -6.0375    0.0000 C   0  0  0  0  0  0  0  0  0  0  0  0
    9.9625   -5.6292    0.0000 C   0  0  0  0  0  0  0  0  0  0  0  0
    4.9542   -4.3417    0.0000 Cl  0  0  0  0  0  0  0  0  0  0  0  0
    2.8125   -5.5792    0.0000 C   0  0  0  0  0  0  0  0  0  0  0  0
    3.5375   -4.3417    0.0000 C   0  0  0  0  0  0  0  0  0  0  0  0
   11.3917   -5.6417    0.0000 C   0  0  0  0  0  0  0  0  0  0  0  0
    9.9667   -4.8125    0.0000 C   0  0  0  0  0  0  0  0  0  0  0  0
   11.4000   -4.8250    0.0000 C   0  0  0  0  0  0  0  0  0  0  0  0
   10.6917   -4.4000    0.0000 C   0  0  0  0  0  0  0  0  0  0  0  0
  2  1  1  0  0  0  0
  3  1  1  0  0  0  0
  4  2  2  0  0  0  0
  5  6  1  0  0  0  0
  6  4  1  0  0  0  0
  7  1  2  0  0  0  0
  8  1  2  0  0  0  0
  9  2  1  0  0  0  0
 10  5  1  0  0  0  0
 11 19  1  0  0  0  0
 12  5  2  0  0  0  0
 13 14  1  0  0  0  0
 14  9  2  0  0  0  0
 15 21  1  0  0  0  0
 16  3  1  0  0  0  0
 17  3  1  0  0  0  0
 18 10  1  0  0  0  0
 19 18  1  0  0  0  0
 20  9  1  0  0  0  0
 21 17  1  0  0  0  0
 22 16  1  0  0  0  0
 23 11  2  0  0  0  0
 24 19  2  0  0  0  0
 25 26  2  0  0  0  0
 26 24  1  0  0  0  0
 15 22  1  0  0  0  0
 13  6  2  0  0  0  0
 23 25  1  0  0  0  0
M  END
> <#>
1536

> <PLATE>
LAT020

> <ROW>
H

> <COL>
3

> <COORD>
H03

> <LATID>
LAT020H03

> <Supplier>
Chembridge

> <Suplier_CAT#>
7813110

> <Name>
Novel

> <Concentration_(mM)>
2.5

> <IC50_(µM)>
inactive

> <Yeast_Active?>
-

> <Pubchem_CID>
NULL

$$$$
