
  -ISIS-  08130814242D

 21 22  0  0  0  0  0  0  0  0999 V2000
    3.2292   -0.3417    0.0000 S   0  0  3  0  0  0  0  0  0  0  0  0
    2.4042   -0.3417    0.0000 N   0  0  0  0  0  0  0  0  0  0  0  0
    4.0542   -0.3417    0.0000 C   0  0  0  0  0  0  0  0  0  0  0  0
    3.2292   -1.1667    0.0000 O   0  0  0  0  0  0  0  0  0  0  0  0
    3.2250    0.4833    0.0000 O   0  0  0  0  0  0  0  0  0  0  0  0
    6.5292   -0.3375    0.0000 C   0  0  3  0  0  0  0  0  0  0  0  0
    5.7042   -0.3375    0.0000 C   0  0  0  0  0  0  0  0  0  0  0  0
    0.7292    1.0458    0.0000 N   0  0  0  0  0  0  0  0  0  0  0  0
    1.9875    0.3708    0.0000 C   0  0  0  0  0  0  0  0  0  0  0  0
    4.4667   -1.0542    0.0000 C   0  0  0  0  0  0  0  0  0  0  0  0
    4.4625    0.3750    0.0000 C   0  0  0  0  0  0  0  0  0  0  0  0
    5.2875    0.3750    0.0000 C   0  0  0  0  0  0  0  0  0  0  0  0
    5.2917   -1.0542    0.0000 C   0  0  0  0  0  0  0  0  0  0  0  0
    1.1667    0.3458    0.0000 C   0  0  0  0  0  0  0  0  0  0  0  0
    7.3542   -0.3375    0.0000 C   0  0  0  0  0  0  0  0  0  0  0  0
    6.5292   -1.1625    0.0000 C   0  0  0  0  0  0  0  0  0  0  0  0
    6.5292    0.4875    0.0000 C   0  0  0  0  0  0  0  0  0  0  0  0
   -0.0958    1.0125    0.0000 C   0  0  0  0  0  0  0  0  0  0  0  0
    0.7792   -0.3875    0.0000 C   0  0  0  0  0  0  0  0  0  0  0  0
   -0.4833    0.2833    0.0000 C   0  0  0  0  0  0  0  0  0  0  0  0
   -0.0458   -0.4167    0.0000 C   0  0  0  0  0  0  0  0  0  0  0  0
  2  1  1  0  0  0  0
  3  1  1  0  0  0  0
  4  1  2  0  0  0  0
  5  1  2  0  0  0  0
  6  7  1  0  0  0  0
  7 12  2  0  0  0  0
  8 14  2  0  0  0  0
  9  2  1  0  0  0  0
 10  3  1  0  0  0  0
 11  3  2  0  0  0  0
 12 11  1  0  0  0  0
 13 10  2  0  0  0  0
 14  9  1  0  0  0  0
 15  6  1  0  0  0  0
 16  6  1  0  0  0  0
 17  6  1  0  0  0  0
 18  8  1  0  0  0  0
 19 14  1  0  0  0  0
 20 21  1  0  0  0  0
 21 19  2  0  0  0  0
 13  7  1  0  0  0  0
 20 18  2  0  0  0  0
M  END
> <#>
1950

> <PLATE>
LAT025

> <ROW>
F

> <COL>
5

> <COORD>
F05

> <LATID>
LAT025F05

> <Supplier>
Chembridge

> <Suplier_CAT#>
7504419

> <Name>
Novel

> <Concentration_(mM)>
2.5

> <IC50_(µM)>
100

> <Yeast_Active?>
-

> <Pubchem_CID>
849941

$$$$
