
  -ISIS-  08130814242D

 28 31  0  0  0  0  0  0  0  0999 V2000
    5.4292    2.5250    0.0000 C   0  0  0  0  0  0  0  0  0  0  0  0
    5.8042    1.8750    0.0000 N   0  0  3  0  0  0  0  0  0  0  0  0
    6.5542    1.8750    0.0000 C   0  0  0  0  0  0  0  0  0  0  0  0
    4.6917    2.3708    0.0000 C   0  0  0  0  0  0  0  0  0  0  0  0
    5.8042    3.1750    0.0000 N   0  0  0  0  0  0  0  0  0  0  0  0
    6.9292    2.5250    0.0000 C   0  0  0  0  0  0  0  0  0  0  0  0
    5.3042    1.3208    0.0000 N   0  0  0  0  0  0  0  0  0  0  0  0
    6.5542    3.1750    0.0000 C   0  0  0  0  0  0  0  0  0  0  0  0
    6.9292    1.2250    0.0000 C   0  0  3  0  0  0  0  0  0  0  0  0
    4.6167    1.6208    0.0000 C   0  0  0  0  0  0  0  0  0  0  0  0
    4.1375    2.8708    0.0000 C   0  0  0  0  0  0  0  0  0  0  0  0
    6.9292    3.8333    0.0000 C   0  0  0  0  0  0  0  0  0  0  0  0
    7.6750    3.9000    0.0000 S   0  0  0  0  0  0  0  0  0  0  0  0
    3.4250    2.6458    0.0000 N   0  0  0  0  0  0  0  0  0  0  0  0
    6.6250    4.5042    0.0000 C   0  0  0  0  0  0  0  0  0  0  0  0
    1.5917    3.4083    0.0000 N   0  0  0  0  0  0  0  0  0  0  0  0
    7.8292    4.6292    0.0000 C   0  0  0  0  0  0  0  0  0  0  0  0
    4.2917    3.6083    0.0000 O   0  0  0  0  0  0  0  0  0  0  0  0
    7.1792    5.0042    0.0000 C   0  0  0  0  0  0  0  0  0  0  0  0
    7.6542    1.4208    0.0000 F   0  0  0  0  0  0  0  0  0  0  0  0
    6.2500    0.9083    0.0000 F   0  0  0  0  0  0  0  0  0  0  0  0
    7.1875    0.5208    0.0000 F   0  0  0  0  0  0  0  0  0  0  0  0
    2.8667    3.1458    0.0000 C   0  0  0  0  0  0  0  0  0  0  0  0
    2.1542    2.9083    0.0000 C   0  0  0  0  0  0  0  0  0  0  0  0
    0.8792    3.1833    0.0000 C   0  0  0  0  0  0  0  0  0  0  0  0
    2.0000    2.1750    0.0000 C   0  0  0  0  0  0  0  0  0  0  0  0
    0.7292    2.4458    0.0000 C   0  0  0  0  0  0  0  0  0  0  0  0
    1.2792    1.9458    0.0000 C   0  0  0  0  0  0  0  0  0  0  0  0
  2  1  1  0  0  0  0
  3  2  1  0  0  0  0
  4  1  2  0  0  0  0
  5  1  1  0  0  0  0
  6  8  1  0  0  0  0
  7  2  1  0  0  0  0
  8  5  2  0  0  0  0
  9  3  1  0  0  0  0
 10  4  1  0  0  0  0
 11  4  1  0  0  0  0
 12  8  1  0  0  0  0
 13 12  1  0  0  0  0
 14 11  1  0  0  0  0
 15 12  2  0  0  0  0
 16 24  2  0  0  0  0
 17 13  1  0  0  0  0
 18 11  2  0  0  0  0
 19 15  1  0  0  0  0
 20  9  1  0  0  0  0
 21  9  1  0  0  0  0
 22  9  1  0  0  0  0
 23 14  1  0  0  0  0
 24 23  1  0  0  0  0
 25 16  1  0  0  0  0
 26 24  1  0  0  0  0
 27 28  1  0  0  0  0
 28 26  2  0  0  0  0
 10  7  2  0  0  0  0
  6  3  2  0  0  0  0
 17 19  2  0  0  0  0
 27 25  2  0  0  0  0
M  END
> <#>
1505

> <PLATE>
LAT019

> <ROW>
A

> <COL>
10

> <COORD>
A10

> <LATID>
LAT019A10

> <Supplier>
Chembridge

> <Suplier_CAT#>
7950096

> <Name>
Novel

> <Concentration_(mM)>
2.5

> <IC50_(µM)>
>100

> <Yeast_Active?>
-

> <Pubchem_CID>
1247942

$$$$
