
  -ISIS-  08130814242D

 23 24  0  0  0  0  0  0  0  0999 V2000
   -1.4125    1.9000    0.0000 C   0  0  0  0  0  0  0  0  0  0  0  0
   -2.0500    0.8500    0.0000 C   0  0  0  0  0  0  0  0  0  0  0  0
   -2.0500    2.9708    0.0000 C   0  0  3  0  0  0  0  0  0  0  0  0
   -3.8708    1.9000    0.0000 C   0  0  0  0  0  0  0  0  0  0  0  0
   -3.2708    0.8500    0.0000 N   0  0  0  0  0  0  0  0  0  0  0  0
   -3.3000    2.9708    0.0000 N   0  0  0  0  0  0  0  0  0  0  0  0
   -0.1625    1.9000    0.0000 C   0  0  0  0  0  0  0  0  0  0  0  0
    2.3792   -0.2875    0.0000 C   0  0  3  0  0  0  0  0  0  0  0  0
   -1.4458    4.0417    0.0000 C   0  0  0  0  0  0  0  0  0  0  0  0
    0.5000    0.8000    0.0000 O   0  0  0  0  0  0  0  0  0  0  0  0
   -5.1208    1.9000    0.0000 O   0  0  0  0  0  0  0  0  0  0  0  0
    0.4792    2.9833    0.0000 O   0  0  0  0  0  0  0  0  0  0  0  0
    1.7542    0.8000    0.0000 C   0  0  0  0  0  0  0  0  0  0  0  0
   -2.0958    5.1292    0.0000 C   0  0  0  0  0  0  0  0  0  0  0  0
   -0.2000    4.0417    0.0000 C   0  0  0  0  0  0  0  0  0  0  0  0
    3.4875    0.3500    0.0000 F   0  0  0  0  0  0  0  0  0  0  0  0
    1.2875   -0.9292    0.0000 F   0  0  0  0  0  0  0  0  0  0  0  0
    3.0167   -1.3792    0.0000 F   0  0  0  0  0  0  0  0  0  0  0  0
   -0.2000    6.2042    0.0000 C   0  0  0  0  0  0  0  0  0  0  0  0
   -1.4125   -0.2167    0.0000 C   0  0  0  0  0  0  0  0  0  0  0  0
   -1.4458    6.2042    0.0000 C   0  0  0  0  0  0  0  0  0  0  0  0
    0.4000    5.0917    0.0000 C   0  0  0  0  0  0  0  0  0  0  0  0
    0.4000    7.2792    0.0000 Cl  0  0  0  0  0  0  0  0  0  0  0  0
  2  1  2  0  0  0  0
  3  1  1  0  0  0  0
  4  6  1  0  0  0  0
  5  2  1  0  0  0  0
  6  3  1  0  0  0  0
  7  1  1  0  0  0  0
  8 13  1  0  0  0  0
  9  3  1  0  0  0  0
 10  7  1  0  0  0  0
 11  4  2  0  0  0  0
 12  7  2  0  0  0  0
 13 10  1  0  0  0  0
 14  9  1  0  0  0  0
 15  9  2  0  0  0  0
 16  8  1  0  0  0  0
 17  8  1  0  0  0  0
 18  8  1  0  0  0  0
 19 22  2  0  0  0  0
 20  2  1  0  0  0  0
 21 14  2  0  0  0  0
 22 15  1  0  0  0  0
 23 19  1  0  0  0  0
  5  4  1  0  0  0  0
 21 19  1  0  0  0  0
M  END
> <#>
754

> <PLATE>
LAT010

> <ROW>
B

> <COL>
6

> <COORD>
B06

> <LATID>
LAT010B06

> <Supplier>
Chembridge

> <Suplier_CAT#>
5603753

> <Name>
Novel

> <Sec_Name>
182_G10

> <Concentration_(mM)>
2.5

> <IC50_(µM)>
43

> <Yeast_Active?>
-

> <Pubchem_CID>
694839

$$$$
