
  -ISIS-  08130814242D

 29 31  0  0  0  0  0  0  0  0999 V2000
   -0.1500   -0.5292    0.0000 S   0  0  3  0  0  0  0  0  0  0  0  0
   -0.2500    0.2458    0.0000 C   0  0  3  0  0  0  0  0  0  0  0  0
    0.3500    0.7125    0.0000 C   0  0  0  0  0  0  0  0  0  0  0  0
    0.2500    1.4833    0.0000 C   0  0  0  0  0  0  0  0  0  0  0  0
   -0.0500   -1.3000    0.0000 C   0  0  0  0  0  0  0  0  0  0  0  0
   -0.9208   -0.6292    0.0000 O   0  0  0  0  0  0  0  0  0  0  0  0
    0.6167   -0.4292    0.0000 O   0  0  0  0  0  0  0  0  0  0  0  0
   -0.9500    0.5458    0.0000 C   0  0  0  0  0  0  0  0  0  0  0  0
    0.8792    1.9125    0.0000 C   0  0  0  0  0  0  0  0  0  0  0  0
   -0.4500    1.7833    0.0000 O   0  0  0  0  0  0  0  0  0  0  0  0
    0.6500   -1.5542    0.0000 C   0  0  0  0  0  0  0  0  0  0  0  0
   -0.6500   -1.7542    0.0000 C   0  0  0  0  0  0  0  0  0  0  0  0
   -1.0500    1.3125    0.0000 C   0  0  0  0  0  0  0  0  0  0  0  0
   -1.5958    0.0833    0.0000 C   0  0  0  0  0  0  0  0  0  0  0  0
    0.7500    2.6833    0.0000 C   0  0  0  0  0  0  0  0  0  0  0  0
    1.5875    1.6125    0.0000 C   0  0  0  0  0  0  0  0  0  0  0  0
    2.0875    2.8500    0.0000 C   0  0  0  0  0  0  0  0  0  0  0  0
   -2.3625    1.1833    0.0000 C   0  0  0  0  0  0  0  0  0  0  0  0
    1.3875    3.1500    0.0000 C   0  0  0  0  0  0  0  0  0  0  0  0
    2.1875    2.0833    0.0000 C   0  0  0  0  0  0  0  0  0  0  0  0
   -1.7208    1.6125    0.0000 C   0  0  0  0  0  0  0  0  0  0  0  0
   -2.2625    0.4125    0.0000 C   0  0  0  0  0  0  0  0  0  0  0  0
   -0.5500   -2.5000    0.0000 C   0  0  0  0  0  0  0  0  0  0  0  0
    0.7792   -2.3292    0.0000 C   0  0  0  0  0  0  0  0  0  0  0  0
    0.1500   -2.8000    0.0000 C   0  0  0  0  0  0  0  0  0  0  0  0
    2.6875    3.3208    0.0000 O   0  0  0  0  0  0  0  0  0  0  0  0
   -3.0458    1.4833    0.0000 O   0  0  0  0  0  0  0  0  0  0  0  0
    0.2500   -3.5667    0.0000 C   0  0  0  0  0  0  0  0  0  0  0  0
   -3.6500    1.0458    0.0000 C   0  0  0  0  0  0  0  0  0  0  0  0
  2  1  1  0  0  0  0
  3  2  1  0  0  0  0
  4  3  1  0  0  0  0
  5  1  1  0  0  0  0
  6  1  2  0  0  0  0
  7  1  2  0  0  0  0
  8  2  1  0  0  0  0
  9  4  1  0  0  0  0
 10  4  2  0  0  0  0
 11  5  1  0  0  0  0
 12  5  2  0  0  0  0
 13  8  2  0  0  0  0
 14  8  1  0  0  0  0
 15  9  1  0  0  0  0
 16  9  2  0  0  0  0
 17 20  2  0  0  0  0
 18 22  1  0  0  0  0
 19 15  2  0  0  0  0
 20 16  1  0  0  0  0
 21 13  1  0  0  0  0
 22 14  2  0  0  0  0
 23 12  1  0  0  0  0
 24 11  2  0  0  0  0
 25 23  2  0  0  0  0
 26 17  1  0  0  0  0
 27 18  1  0  0  0  0
 28 25  1  0  0  0  0
 29 27  1  0  0  0  0
 24 25  1  0  0  0  0
 18 21  2  0  0  0  0
 19 17  1  0  0  0  0
M  END
> <#>
1232

> <PLATE>
LAT016

> <ROW>
H

> <COL>
5

> <COORD>
H05

> <LATID>
LAT016H05

> <Supplier>
Chembridge

> <Suplier_CAT#>
6153458

> <Name>
Novel

> <Concentration_(mM)>
2.5

> <IC50_(µM)>
97

> <Yeast_Active?>
-

> <Pubchem_CID>
1362564

$$$$
