
  -ISIS-  08130814242D

 19 19  0  0  0  0  0  0  0  0999 V2000
   -0.8458    1.5958    0.0000 C   0  0  0  0  0  0  0  0  0  0  0  0
   -0.8458    0.6708    0.0000 C   0  0  0  0  0  0  0  0  0  0  0  0
   -1.6208    2.0333    0.0000 C   0  0  0  0  0  0  0  0  0  0  0  0
   -2.4000    1.5958    0.0000 C   0  0  0  0  0  0  0  0  0  0  0  0
   -1.6208    0.2333    0.0000 C   0  0  0  0  0  0  0  0  0  0  0  0
   -2.4000    0.6708    0.0000 C   0  0  0  0  0  0  0  0  0  0  0  0
   -0.0458    2.0500    0.0000 C   0  0  0  0  0  0  0  0  0  0  0  0
   -3.2000    2.0500    0.0000 C   0  0  3  0  0  0  0  0  0  0  0  0
   -1.6208   -0.6875    0.0000 C   0  0  3  0  0  0  0  0  0  0  0  0
    0.7542    1.6125    0.0000 O   0  0  0  0  0  0  0  0  0  0  0  0
   -1.6208    2.9583    0.0000 O   0  0  0  0  0  0  0  0  0  0  0  0
   -0.0458    0.2125    0.0000 O   0  0  0  0  0  0  0  0  0  0  0  0
   -1.6208   -1.6042    0.0000 C   0  0  0  0  0  0  0  0  0  0  0  0
   -0.7000   -0.6875    0.0000 C   0  0  0  0  0  0  0  0  0  0  0  0
   -2.7208    2.8500    0.0000 C   0  0  0  0  0  0  0  0  0  0  0  0
   -3.6625    1.2500    0.0000 C   0  0  0  0  0  0  0  0  0  0  0  0
   -4.0000    2.5333    0.0000 C   0  0  0  0  0  0  0  0  0  0  0  0
   -2.5208   -0.6875    0.0000 C   0  0  0  0  0  0  0  0  0  0  0  0
   -0.0458    2.9708    0.0000 C   0  0  0  0  0  0  0  0  0  0  0  0
  2  1  1  0  0  0  0
  3  1  2  0  0  0  0
  4  3  1  0  0  0  0
  5  2  2  0  0  0  0
  6  4  2  0  0  0  0
  7  1  1  0  0  0  0
  8  4  1  0  0  0  0
  9  5  1  0  0  0  0
 10  7  2  0  0  0  0
 11  3  1  0  0  0  0
 12  2  1  0  0  0  0
 13  9  1  0  0  0  0
 14  9  1  0  0  0  0
 15  8  1  0  0  0  0
 16  8  1  0  0  0  0
 17  8  1  0  0  0  0
 18  9  1  0  0  0  0
 19  7  1  0  0  0  0
  5  6  1  0  0  0  0
M  END
> <#>
1188

> <PLATE>
LAT015

> <ROW>
D

> <COL>
10

> <COORD>
D10

> <LATID>
LAT015D10

> <Supplier>
Chembridge

> <Suplier_CAT#>
5665131

> <Name>
Novel

> <Concentration_(mM)>
2.5

> <IC50_(µM)>
inactive

> <Yeast_Active?>
-

> <Pubchem_CID>
799499

$$$$
