
  -ISIS-  08130814242D

 28 32  0  0  0  0  0  0  0  0999 V2000
   -2.2833    0.6833    0.0000 C   0  0  0  0  0  0  0  0  0  0  0  0
   -2.2833    1.6208    0.0000 C   0  0  0  0  0  0  0  0  0  0  0  0
   -1.4708    0.2125    0.0000 C   0  0  0  0  0  0  0  0  0  0  0  0
   -1.4708    2.0958    0.0000 C   0  0  0  0  0  0  0  0  0  0  0  0
   -3.0958    0.2125    0.0000 C   0  0  0  0  0  0  0  0  0  0  0  0
   -3.0958    2.0958    0.0000 C   0  0  0  0  0  0  0  0  0  0  0  0
   -0.6625    0.6833    0.0000 C   0  0  0  0  0  0  0  0  0  0  0  0
   -0.6625    1.6208    0.0000 C   0  0  0  0  0  0  0  0  0  0  0  0
   -3.9000    0.6833    0.0000 C   0  0  0  0  0  0  0  0  0  0  0  0
   -3.9000    1.6208    0.0000 C   0  0  0  0  0  0  0  0  0  0  0  0
   -3.0958   -0.7167    0.0000 N   0  0  0  0  0  0  0  0  0  0  0  0
   -1.4708   -0.7167    0.0000 O   0  0  0  0  0  0  0  0  0  0  0  0
   -1.4708    3.0208    0.0000 O   0  0  0  0  0  0  0  0  0  0  0  0
   -3.0958    3.0208    0.0000 O   0  0  0  0  0  0  0  0  0  0  0  0
   -3.8958   -1.1875    0.0000 C   0  0  0  0  0  0  0  0  0  0  0  0
    0.1500    2.0958    0.0000 C   0  0  0  0  0  0  0  0  0  0  0  0
    0.1500    0.2125    0.0000 C   0  0  0  0  0  0  0  0  0  0  0  0
   -4.7208    2.0958    0.0000 C   0  0  0  0  0  0  0  0  0  0  0  0
   -4.7208    0.2125    0.0000 C   0  0  0  0  0  0  0  0  0  0  0  0
   -4.7208   -0.7292    0.0000 C   0  0  0  0  0  0  0  0  0  0  0  0
   -3.8958   -2.1292    0.0000 C   0  0  0  0  0  0  0  0  0  0  0  0
    0.9542    1.6208    0.0000 C   0  0  0  0  0  0  0  0  0  0  0  0
    0.9542    0.6833    0.0000 C   0  0  0  0  0  0  0  0  0  0  0  0
   -5.5208    0.6833    0.0000 C   0  0  0  0  0  0  0  0  0  0  0  0
   -5.5208    1.6208    0.0000 C   0  0  0  0  0  0  0  0  0  0  0  0
   -5.5208   -1.2000    0.0000 C   0  0  0  0  0  0  0  0  0  0  0  0
   -4.7083   -2.6042    0.0000 C   0  0  0  0  0  0  0  0  0  0  0  0
   -5.5208   -2.1500    0.0000 C   0  0  0  0  0  0  0  0  0  0  0  0
  2  1  2  0  0  0  0
  3  1  1  0  0  0  0
  4  2  1  0  0  0  0
  5  1  1  0  0  0  0
  6  2  1  0  0  0  0
  7  3  1  0  0  0  0
  8  7  2  0  0  0  0
  9  5  2  0  0  0  0
 10  9  1  0  0  0  0
 11  5  1  0  0  0  0
 12  3  2  0  0  0  0
 13  4  2  0  0  0  0
 14  6  1  0  0  0  0
 15 11  1  0  0  0  0
 16  8  1  0  0  0  0
 17  7  1  0  0  0  0
 18 10  1  0  0  0  0
 19  9  1  0  0  0  0
 20 15  2  0  0  0  0
 21 15  1  0  0  0  0
 22 23  1  0  0  0  0
 23 17  2  0  0  0  0
 24 19  2  0  0  0  0
 25 24  1  0  0  0  0
 26 20  1  0  0  0  0
 27 21  2  0  0  0  0
 28 27  1  0  0  0  0
  6 10  2  0  0  0  0
  4  8  1  0  0  0  0
 18 25  2  0  0  0  0
 16 22  2  0  0  0  0
 26 28  2  0  0  0  0
M  END
> <#>
1135

> <PLATE>
LAT015

> <ROW>
G

> <COL>
3

> <COORD>
G03

> <LATID>
LAT015G03

> <Supplier>
Chembridge

> <Suplier_CAT#>
5475373

> <Name>
Novel

> <Concentration_(mM)>
2.5

> <IC50_(µM)>
>100

> <Yeast_Active?>
-

> <Pubchem_CID>
NULL

$$$$
