
  -ISIS-  08130814242D

 29 32  0  0  0  0  0  0  0  0999 V2000
    4.3167    0.4625    0.0000 N   0  0  3  0  0  0  0  0  0  0  0  0
    3.1292    0.2125    0.0000 C   0  0  0  0  0  0  0  0  0  0  0  0
    3.6375    0.7708    0.0000 C   0  0  0  0  0  0  0  0  0  0  0  0
    4.2375   -0.2667    0.0000 N   0  0  0  0  0  0  0  0  0  0  0  0
    0.7292   -0.7875    0.0000 C   0  0  0  0  0  0  0  0  0  0  0  0
    3.5042   -0.4292    0.0000 C   0  0  0  0  0  0  0  0  0  0  0  0
   -0.2208   -1.5292    0.0000 N   0  0  0  0  0  0  0  0  0  0  0  0
    1.2000   -0.2167    0.0000 S   0  0  0  0  0  0  0  0  0  0  0  0
    1.0375   -1.4500    0.0000 C   0  0  0  0  0  0  0  0  0  0  0  0
    0.3667   -1.9667    0.0000 N   0  0  0  0  0  0  0  0  0  0  0  0
    0.0042   -0.8167    0.0000 C   0  0  0  0  0  0  0  0  0  0  0  0
    2.3792    0.2958    0.0000 C   0  0  0  0  0  0  0  0  0  0  0  0
    2.0875    0.9833    0.0000 N   0  0  0  0  0  0  0  0  0  0  0  0
    0.9000    0.4625    0.0000 C   0  0  0  0  0  0  0  0  0  0  0  0
    4.9667    0.8333    0.0000 C   0  0  0  0  0  0  0  0  0  0  0  0
    1.3375    1.0625    0.0000 C   0  0  0  0  0  0  0  0  0  0  0  0
    3.4792    1.5000    0.0000 O   0  0  0  0  0  0  0  0  0  0  0  0
    3.2000   -1.1042    0.0000 C   0  0  0  0  0  0  0  0  0  0  0  0
    1.6875   -1.7667    0.0000 C   0  0  0  0  0  0  0  0  0  0  0  0
   -0.4208   -0.2042    0.0000 C   0  0  0  0  0  0  0  0  0  0  0  0
    0.1500    0.5458    0.0000 C   0  0  0  0  0  0  0  0  0  0  0  0
    4.9792    1.5833    0.0000 C   0  0  0  0  0  0  0  0  0  0  0  0
    5.6167    0.4625    0.0000 C   0  0  0  0  0  0  0  0  0  0  0  0
    1.0375    1.7500    0.0000 C   0  0  0  0  0  0  0  0  0  0  0  0
   -0.1458    1.2333    0.0000 C   0  0  0  0  0  0  0  0  0  0  0  0
    5.6292    1.9625    0.0000 C   0  0  0  0  0  0  0  0  0  0  0  0
    0.2875    1.8333    0.0000 C   0  0  0  0  0  0  0  0  0  0  0  0
    6.2667    0.8333    0.0000 C   0  0  0  0  0  0  0  0  0  0  0  0
    6.2667    1.5833    0.0000 C   0  0  0  0  0  0  0  0  0  0  0  0
  2  3  2  0  0  0  0
  3  1  1  0  0  0  0
  4  1  1  0  0  0  0
  5  8  1  0  0  0  0
  6  4  2  0  0  0  0
  7 11  2  0  0  0  0
  8 14  1  0  0  0  0
  9  5  2  0  0  0  0
 10  9  1  0  0  0  0
 11  5  1  0  0  0  0
 12  2  1  0  0  0  0
 13 12  2  0  0  0  0
 14 16  1  0  0  0  0
 15  1  1  0  0  0  0
 16 13  1  0  0  0  0
 17  3  1  0  0  0  0
 18  6  1  0  0  0  0
 19  9  1  0  0  0  0
 20 11  1  0  0  0  0
 21 14  2  0  0  0  0
 22 15  2  0  0  0  0
 23 15  1  0  0  0  0
 24 16  2  0  0  0  0
 25 27  2  0  0  0  0
 26 22  1  0  0  0  0
 27 24  1  0  0  0  0
 28 23  2  0  0  0  0
 29 28  1  0  0  0  0
  6  2  1  0  0  0  0
 29 26  2  0  0  0  0
 25 21  1  0  0  0  0
 10  7  1  0  0  0  0
M  END
> <#>
635

> <PLATE>
LAT008

> <ROW>
C

> <COL>
11

> <COORD>
C11

> <LATID>
LAT008C11

> <Supplier>
Chembridge

> <Suplier_CAT#>
5488026

> <Name>
Novel

> <Sec_Name>
147_A04

> <Concentration_(mM)>
2.5

> <IC50_(µM)>
100

> <Yeast_Active?>
-

> <Pubchem_CID>
NULL

$$$$
