
  -ISIS-  08130814242D

 18 19  0  0  0  0  0  0  0  0999 V2000
    4.5375   -1.9167    0.0000 C   0  0  0  0  0  0  0  0  0  0  0  0
    3.7875   -1.9167    0.0000 C   0  0  0  0  0  0  0  0  0  0  0  0
    4.9167   -1.2625    0.0000 C   0  0  0  0  0  0  0  0  0  0  0  0
    3.4125   -2.5667    0.0000 C   0  0  0  0  0  0  0  0  0  0  0  0
    2.6625   -2.5667    0.0000 C   0  0  0  0  0  0  0  0  0  0  0  0
    2.2875   -3.2125    0.0000 C   0  0  0  0  0  0  0  0  0  0  0  0
    1.5375   -3.2125    0.0000 C   0  0  0  0  0  0  0  0  0  0  0  0
    4.9125   -2.5667    0.0000 C   0  0  0  0  0  0  0  0  0  0  0  0
    2.2875   -1.9167    0.0000 C   0  0  0  0  0  0  0  0  0  0  0  0
    3.7875   -3.2125    0.0000 C   0  0  0  0  0  0  0  0  0  0  0  0
    4.5417   -0.6167    0.0000 O   0  0  0  0  0  0  0  0  0  0  0  0
    4.5375   -3.2125    0.0000 C   0  0  0  0  0  0  0  0  0  0  0  0
    1.1625   -2.5667    0.0000 C   0  0  0  0  0  0  0  0  0  0  0  0
    2.6667   -3.8667    0.0000 F   0  0  0  0  0  0  0  0  0  0  0  0
    5.6667   -1.2625    0.0000 O   0  0  0  0  0  0  0  0  0  0  0  0
    1.5375   -1.9167    0.0000 C   0  0  0  0  0  0  0  0  0  0  0  0
    5.6625   -2.5667    0.0000 O   0  0  0  0  0  0  0  0  0  0  0  0
    0.4125   -2.5667    0.0000 F   0  0  0  0  0  0  0  0  0  0  0  0
  2  1  1  0  0  0  0
  3  1  1  0  0  0  0
  4  2  2  0  0  0  0
  5  4  1  0  0  0  0
  6  5  1  0  0  0  0
  7  6  2  0  0  0  0
  8  1  2  0  0  0  0
  9  5  2  0  0  0  0
 10 12  2  0  0  0  0
 11  3  2  0  0  0  0
 12  8  1  0  0  0  0
 13 16  2  0  0  0  0
 14  6  1  0  0  0  0
 15  3  1  0  0  0  0
 16  9  1  0  0  0  0
 17  8  1  0  0  0  0
 18 13  1  0  0  0  0
  4 10  1  0  0  0  0
 13  7  1  0  0  0  0
M  END
> <#>
52

> <PLATE>
LAT001

> <ROW>
D

> <COL>
8

> <COORD>
D08

> <LATID>
LAT001D08

> <Supplier>
Microsource

> <Suplier_CAT#>
01500245

> <Name>
Diflunisal

> <Concentration_(mM)>
2.5

> <IC50_(µM)>
15

> <Yeast_Active?>
-

> <Pubchem_CID>
3059

> <Description>
Analgesic, Antiinflammatory

$$$$
