
  -ISIS-  08130814242D

 20 21  0  0  0  0  0  0  0  0999 V2000
    6.5167   -0.3542    0.0000 N   0  3  0  0  0  0  0  0  0  0  0  0
    1.5167    0.9083    0.0000 C   0  0  0  0  0  0  0  0  0  0  0  0
    5.8042    0.0708    0.0000 C   0  0  0  0  0  0  0  0  0  0  0  0
    6.5167   -1.1792    0.0000 O   0  5  0  0  0  0  0  0  0  0  0  0
    2.2375    1.3208    0.0000 C   0  0  0  0  0  0  0  0  0  0  0  0
    7.2417    0.0583    0.0000 O   0  0  0  0  0  0  0  0  0  0  0  0
    0.8000    1.3208    0.0000 C   0  0  0  0  0  0  0  0  0  0  0  0
    2.9500    0.9000    0.0000 O   0  0  0  0  0  0  0  0  0  0  0  0
    1.5167    0.0750    0.0000 C   0  0  0  0  0  0  0  0  0  0  0  0
    5.8042    0.8958    0.0000 C   0  0  0  0  0  0  0  0  0  0  0  0
    5.0917   -0.3417    0.0000 C   0  0  0  0  0  0  0  0  0  0  0  0
    2.2375    2.1458    0.0000 C   0  0  0  0  0  0  0  0  0  0  0  0
    0.8042   -0.3375    0.0000 O   0  0  0  0  0  0  0  0  0  0  0  0
    0.8000    2.1458    0.0000 C   0  0  0  0  0  0  0  0  0  0  0  0
    3.6667    1.3125    0.0000 C   0  0  0  0  0  0  0  0  0  0  0  0
    4.3792    0.9000    0.0000 C   0  0  0  0  0  0  0  0  0  0  0  0
    1.5250    2.5583    0.0000 C   0  0  0  0  0  0  0  0  0  0  0  0
    5.0917    1.3125    0.0000 C   0  0  0  0  0  0  0  0  0  0  0  0
    4.3750    0.0708    0.0000 C   0  0  0  0  0  0  0  0  0  0  0  0
    0.0917    2.5708    0.0000 Br  0  0  0  0  0  0  0  0  0  0  0  0
  2  5  1  0  0  0  0
  3  1  1  0  0  0  0
  4  1  1  0  0  0  0
  5  8  1  0  0  0  0
  6  1  2  0  0  0  0
  7  2  2  0  0  0  0
  8 15  1  0  0  0  0
  9  2  1  0  0  0  0
 10  3  1  0  0  0  0
 11  3  2  0  0  0  0
 12  5  2  0  0  0  0
 13  9  2  0  0  0  0
 14 17  2  0  0  0  0
 15 16  1  0  0  0  0
 16 19  2  0  0  0  0
 17 12  1  0  0  0  0
 18 10  2  0  0  0  0
 19 11  1  0  0  0  0
 20 14  1  0  0  0  0
 16 18  1  0  0  0  0
  7 14  1  0  0  0  0
M  CHG  2   1   1   4  -1
M  END
> <#>
1903

> <PLATE>
LAT024

> <ROW>
G

> <COL>
9

> <COORD>
G09

> <LATID>
LAT024G09

> <Supplier>
Chembridge

> <Suplier_CAT#>
6484058

> <Name>
S001 D10

> <Concentration_(mM)>
2.5

> <IC50_(µM)>
>100

> <Yeast_Active?>
-

> <Pubchem_CID>
883187

$$$$
