
  -ISIS-  08130814242D

 21 22  0  0  0  0  0  0  0  0999 V2000
    2.4417   -5.8375    0.0000 S   0  0  3  0  0  0  0  0  0  0  0  0
    3.1875   -3.2375    0.0000 N   0  3  0  0  0  0  0  0  0  0  0  0
    3.2042   -5.8375    0.0000 N   0  0  0  0  0  0  0  0  0  0  0  0
    3.5792   -5.1875    0.0000 C   0  0  0  0  0  0  0  0  0  0  0  0
    3.5667   -3.8875    0.0000 C   0  0  0  0  0  0  0  0  0  0  0  0
    3.2000   -4.5500    0.0000 C   0  0  0  0  0  0  0  0  0  0  0  0
    2.4417   -6.5875    0.0000 O   0  0  0  0  0  0  0  0  0  0  0  0
    2.4417   -5.0875    0.0000 O   0  0  0  0  0  0  0  0  0  0  0  0
    3.5542   -2.5875    0.0000 O   0  5  0  0  0  0  0  0  0  0  0  0
    2.4375   -3.2500    0.0000 O   0  0  0  0  0  0  0  0  0  0  0  0
    1.7042   -5.8375    0.0000 C   0  0  0  0  0  0  0  0  0  0  0  0
    4.3292   -5.1875    0.0000 C   0  0  0  0  0  0  0  0  0  0  0  0
    4.3167   -3.8875    0.0000 C   0  0  0  0  0  0  0  0  0  0  0  0
    4.7000   -4.5375    0.0000 C   0  0  0  0  0  0  0  0  0  0  0  0
    1.3292   -5.1875    0.0000 C   0  0  0  0  0  0  0  0  0  0  0  0
    4.7042   -5.8375    0.0000 C   0  0  0  0  0  0  0  0  0  0  0  0
    0.5792   -5.1875    0.0000 C   0  0  0  0  0  0  0  0  0  0  0  0
    1.7000   -4.5375    0.0000 C   0  0  0  0  0  0  0  0  0  0  0  0
    0.2000   -4.5375    0.0000 C   0  0  0  0  0  0  0  0  0  0  0  0
    1.3292   -3.8875    0.0000 C   0  0  0  0  0  0  0  0  0  0  0  0
    0.5792   -3.8875    0.0000 C   0  0  0  0  0  0  0  0  0  0  0  0
  2  5  1  0  0  0  0
  3  1  1  0  0  0  0
  4  3  1  0  0  0  0
  5  6  2  0  0  0  0
  6  4  1  0  0  0  0
  7  1  2  0  0  0  0
  8  1  2  0  0  0  0
  9  2  1  0  0  0  0
 10  2  2  0  0  0  0
 11  1  1  0  0  0  0
 12  4  2  0  0  0  0
 13 14  2  0  0  0  0
 14 12  1  0  0  0  0
 15 11  1  0  0  0  0
 16 12  1  0  0  0  0
 17 15  1  0  0  0  0
 18 15  2  0  0  0  0
 19 17  2  0  0  0  0
 20 18  1  0  0  0  0
 21 20  2  0  0  0  0
 19 21  1  0  0  0  0
  5 13  1  0  0  0  0
M  CHG  2   2   1   9  -1
M  END
> <#>
701

> <PLATE>
LAT009

> <ROW>
E

> <COL>
9

> <COORD>
E09

> <LATID>
LAT009E09

> <Supplier>
Chembridge

> <Suplier_CAT#>
5559938

> <Name>
Novel

> <Sec_Name>
169_F10

> <Concentration_(mM)>
2.5

> <IC50_(µM)>
>100

> <Yeast_Active?>
-

> <Pubchem_CID>
871977

$$$$
