
  -ISIS-  08130814242D

 18 20  0  0  0  0  0  0  0  0999 V2000
    0.7000    0.5208    0.0000 C   0  0  0  0  0  0  0  0  0  0  0  0
   -0.1708    1.0208    0.0000 C   0  0  0  0  0  0  0  0  0  0  0  0
    0.7000   -0.4792    0.0000 C   0  0  0  0  0  0  0  0  0  0  0  0
   -0.1708   -0.9792    0.0000 C   0  0  0  0  0  0  0  0  0  0  0  0
   -1.0333    0.5208    0.0000 C   0  0  0  0  0  0  0  0  0  0  0  0
   -1.0333   -0.4792    0.0000 C   0  0  0  0  0  0  0  0  0  0  0  0
    1.5542    1.0208    0.0000 C   0  0  0  0  0  0  0  0  0  0  0  0
    1.5542   -0.9792    0.0000 C   0  0  0  0  0  0  0  0  0  0  0  0
   -0.1708    2.0208    0.0000 O   0  0  0  0  0  0  0  0  0  0  0  0
    2.4292    0.5208    0.0000 C   0  0  0  0  0  0  0  0  0  0  0  0
   -0.1708   -1.9792    0.0000 O   0  0  0  0  0  0  0  0  0  0  0  0
    2.4292   -0.4792    0.0000 C   0  0  0  0  0  0  0  0  0  0  0  0
    1.5542    2.0208    0.0000 O   0  0  0  0  0  0  0  0  0  0  0  0
    3.3042    1.0208    0.0000 O   0  0  0  0  0  0  0  0  0  0  0  0
   -1.8958    1.0208    0.0000 C   0  0  0  0  0  0  0  0  0  0  0  0
   -1.8958   -0.9792    0.0000 C   0  0  0  0  0  0  0  0  0  0  0  0
   -2.7625   -0.4792    0.0000 C   0  0  0  0  0  0  0  0  0  0  0  0
   -2.7625    0.5208    0.0000 C   0  0  0  0  0  0  0  0  0  0  0  0
  2  1  1  0  0  0  0
  3  1  1  0  0  0  0
  4  3  1  0  0  0  0
  5  2  1  0  0  0  0
  6  4  1  0  0  0  0
  7  1  2  0  0  0  0
  8  3  2  0  0  0  0
  9  2  2  0  0  0  0
 10  7  1  0  0  0  0
 11  4  2  0  0  0  0
 12 10  2  0  0  0  0
 13  7  1  0  0  0  0
 14 10  1  0  0  0  0
 15  5  1  0  0  0  0
 16  6  1  0  0  0  0
 17 16  2  0  0  0  0
 18 15  2  0  0  0  0
 12  8  1  0  0  0  0
  6  5  2  0  0  0  0
 17 18  1  0  0  0  0
M  END
> <#>
1155

> <PLATE>
LAT015

> <ROW>
C

> <COL>
6

> <COORD>
C06

> <LATID>
LAT015C06

> <Supplier>
Chembridge

> <Suplier_CAT#>
5122115

> <Name>
Novel

> <Concentration_(mM)>
2.5

> <IC50_(µM)>
>100

> <Yeast_Active?>
+

> <Pubchem_CID>
NULL

$$$$
