
  -ISIS-  08130814242D

 10 11  0  0  0  0  0  0  0  0999 V2000
   -2.5604    0.3430    0.0000 N   0  0  0  0  0  0  0  0  0  0  0  0
   -3.6429   -0.2820    0.0000 C   0  0  0  0  0  0  0  0  0  0  0  0
   -4.7255    0.3430    0.0000 N   0  0  0  0  0  0  0  0  0  0  0  0
   -4.7255    1.5930    0.0000 C   0  0  0  0  0  0  0  0  0  0  0  0
   -3.6429    2.2180    0.0000 C   0  0  0  0  0  0  0  0  0  0  0  0
   -2.5604    1.5930    0.0000 C   0  0  0  0  0  0  0  0  0  0  0  0
   -1.4779    2.2180    0.0000 N   0  0  0  0  0  0  0  0  0  0  0  0
   -5.6544    2.4294    0.0000 N   0  0  0  0  0  0  0  0  0  0  0  0
   -5.1460    3.5713    0.0000 C   0  0  0  0  0  0  0  0  0  0  0  0
   -3.9028    3.4407    0.0000 N   0  0  0  0  0  0  0  0  0  0  0  0
  1  2  1  0  0  0  0
  2  3  2  0  0  0  0
  3  4  1  0  0  0  0
  4  5  2  0  0  0  0
  5  6  1  0  0  0  0
  6  7  1  0  0  0  0
  1  6  2  0  0  0  0
  4  8  1  0  0  0  0
  8  9  2  0  0  0  0
  9 10  1  0  0  0  0
  5 10  1  0  0  0  0
M  END
> <#>
389

> <PLATE>
LAT005

> <ROW>
E

> <COL>
10

> <COORD>
E10

> <LATID>
LAT005E10

> <Supplier>
Aldrich

> <Suplier_CAT#>
104965

> <Name>
Adenine

> <Concentration_(mM)>
2.5

> <IC50_(µM)>
inactive

> <Yeast_Active?>
-

> <Pubchem_CID>
190

$$$$
