
  -ISIS-  08130814242D

 29 32  0  0  0  0  0  0  0  0999 V2000
    7.5792    2.2875    0.0000 C   0  0  0  0  0  0  0  0  0  0  0  0
    6.8375    2.2083    0.0000 N   0  0  3  0  0  0  0  0  0  0  0  0
    7.8875    1.6000    0.0000 N   0  0  0  0  0  0  0  0  0  0  0  0
    4.3917    2.7375    0.0000 C   0  0  0  0  0  0  0  0  0  0  0  0
    5.0417    3.1125    0.0000 N   0  0  0  0  0  0  0  0  0  0  0  0
    5.6000    2.6083    0.0000 C   0  0  0  0  0  0  0  0  0  0  0  0
    7.9542    2.9375    0.0000 C   0  0  3  0  0  0  0  0  0  0  0  0
    5.2917    1.9250    0.0000 N   0  0  0  0  0  0  0  0  0  0  0  0
    4.5500    2.0083    0.0000 O   0  0  0  0  0  0  0  0  0  0  0  0
    6.6792    1.4750    0.0000 C   0  0  0  0  0  0  0  0  0  0  0  0
    7.3292    1.1000    0.0000 C   0  0  0  0  0  0  0  0  0  0  0  0
    3.7042    3.0458    0.0000 C   0  0  0  0  0  0  0  0  0  0  0  0
    6.3292    2.7708    0.0000 C   0  0  0  0  0  0  0  0  0  0  0  0
    3.1042    2.6000    0.0000 N   0  0  0  0  0  0  0  0  0  0  0  0
    1.1250    2.7708    0.0000 N   0  0  0  0  0  0  0  0  0  0  0  0
    3.6292    3.7958    0.0000 O   0  0  0  0  0  0  0  0  0  0  0  0
    8.6792    2.7458    0.0000 F   0  0  0  0  0  0  0  0  0  0  0  0
    8.2125    3.6458    0.0000 F   0  0  0  0  0  0  0  0  0  0  0  0
    7.2792    3.2583    0.0000 F   0  0  0  0  0  0  0  0  0  0  0  0
    2.4167    2.9083    0.0000 C   0  0  0  0  0  0  0  0  0  0  0  0
    1.8125    2.4708    0.0000 C   0  0  0  0  0  0  0  0  0  0  0  0
    6.0292    1.1000    0.0000 C   0  0  0  0  0  0  0  0  0  0  0  0
    7.3292    0.3500    0.0000 C   0  0  0  0  0  0  0  0  0  0  0  0
    0.5167    2.3333    0.0000 C   0  0  0  0  0  0  0  0  0  0  0  0
    1.8875    1.7208    0.0000 C   0  0  0  0  0  0  0  0  0  0  0  0
    6.0292    0.3500    0.0000 C   0  0  0  0  0  0  0  0  0  0  0  0
    6.6792   -0.0250    0.0000 C   0  0  0  0  0  0  0  0  0  0  0  0
    0.5917    1.5833    0.0000 C   0  0  0  0  0  0  0  0  0  0  0  0
    1.2792    1.2833    0.0000 C   0  0  0  0  0  0  0  0  0  0  0  0
  2  1  1  0  0  0  0
  3  1  2  0  0  0  0
  4  5  2  0  0  0  0
  5  6  1  0  0  0  0
  6 13  1  0  0  0  0
  7  1  1  0  0  0  0
  8  6  2  0  0  0  0
  9  8  1  0  0  0  0
 10  2  1  0  0  0  0
 11  3  1  0  0  0  0
 12  4  1  0  0  0  0
 13  2  1  0  0  0  0
 14 12  1  0  0  0  0
 15 21  1  0  0  0  0
 16 12  2  0  0  0  0
 17  7  1  0  0  0  0
 18  7  1  0  0  0  0
 19  7  1  0  0  0  0
 20 14  1  0  0  0  0
 21 20  1  0  0  0  0
 22 10  1  0  0  0  0
 23 11  1  0  0  0  0
 24 15  2  0  0  0  0
 25 21  2  0  0  0  0
 26 22  2  0  0  0  0
 27 23  2  0  0  0  0
 28 29  2  0  0  0  0
 29 25  1  0  0  0  0
 11 10  2  0  0  0  0
 26 27  1  0  0  0  0
  9  4  1  0  0  0  0
 28 24  1  0  0  0  0
M  END
> <#>
1418

> <PLATE>
LAT018

> <ROW>
B

> <COL>
9

> <COORD>
B09

> <LATID>
LAT018B09

> <Supplier>
Chembridge

> <Suplier_CAT#>
9059059

> <Name>
Novel

> <Concentration_(mM)>
2.5

> <IC50_(µM)>
inactive

> <Yeast_Active?>
-

> <Pubchem_CID>
5301211

$$$$
