
  -ISIS-  08130814242D

 21 23  0  0  0  0  0  0  0  0999 V2000
    5.9625   -4.2917    0.0000 C   0  0  3  0  0  0  0  0  0  0  0  0
    7.5667   -4.2042    0.0000 C   0  0  3  0  0  0  0  0  0  0  0  0
    7.2167   -4.5375    0.0000 C   0  0  3  0  0  0  0  0  0  0  0  0
    5.1375   -4.2917    0.0000 N   0  0  0  0  0  0  0  0  0  0  0  0
    6.7000   -3.1667    0.0000 C   0  0  3  0  0  0  0  0  0  0  0  0
    6.7875   -4.5417    0.0000 C   0  0  0  0  0  0  0  0  0  0  0  0
    6.4792   -4.8542    0.0000 C   0  0  0  0  0  0  0  0  0  0  0  0
    8.1042   -4.8542    0.0000 C   0  0  0  0  0  0  0  0  0  0  0  0
    5.9500   -3.4792    0.0000 C   0  0  0  0  0  0  0  0  0  0  0  0
    7.5500   -3.3875    0.0000 C   0  0  0  0  0  0  0  0  0  0  0  0
    7.1750   -3.7750    0.0000 C   0  0  0  0  0  0  0  0  0  0  0  0
    3.3500   -3.9542    0.0000 N   0  0  0  0  0  0  0  0  0  0  0  0
    3.9292   -3.3667    0.0000 C   0  0  0  0  0  0  0  0  0  0  0  0
    4.7250   -3.5875    0.0000 C   0  0  0  0  0  0  0  0  0  0  0  0
    7.8167   -5.1000    0.0000 C   0  0  0  0  0  0  0  0  0  0  0  0
    8.2625   -3.7542    0.0000 C   0  0  0  0  0  0  0  0  0  0  0  0
    2.5500   -3.7417    0.0000 C   0  0  0  0  0  0  0  0  0  0  0  0
    3.7042   -2.5667    0.0000 C   0  0  0  0  0  0  0  0  0  0  0  0
    2.3292   -2.9500    0.0000 C   0  0  0  0  0  0  0  0  0  0  0  0
    2.9167   -2.3625    0.0000 C   0  0  0  0  0  0  0  0  0  0  0  0
    4.5625   -1.1667    0.0000 Cl  0  0  0  0  0  0  0  0  0  0  0  0
  2  6  1  0  0  0  0
  3  7  1  0  0  0  0
  4  1  1  0  0  0  0
  5  9  1  0  0  0  0
  6  1  1  0  0  0  0
  7  1  1  0  0  0  0
  8  3  1  0  0  0  0
  9  1  1  0  0  0  0
 10  5  1  0  0  0  0
 11  5  1  0  0  0  0
 12 13  2  0  0  0  0
 13 14  1  0  0  0  0
 14  4  1  0  0  0  0
 15  3  1  0  0  0  0
 16  2  1  0  0  0  0
 17 12  1  0  0  0  0
 18 13  1  0  0  0  0
 19 20  1  0  0  0  0
 20 18  2  0  0  0  0
  3 11  1  0  0  0  0
  2 10  1  0  0  0  0
  8  2  1  0  0  0  0
 19 17  2  0  0  0  0
M  END
> <#>
1568

> <PLATE>
LAT020

> <ROW>
H

> <COL>
7

> <COORD>
H07

> <LATID>
LAT020H07

> <Supplier>
Chembridge

> <Suplier_CAT#>
9034912

> <Name>
Novel

> <Concentration_(mM)>
2.5

> <IC50_(µM)>
inactive

> <Yeast_Active?>
-

> <Pubchem_CID>
NULL

$$$$
