
  -ISIS-  08130814242D

 25 28  0  0  0  0  0  0  0  0999 V2000
    1.2167    1.0125    0.0000 C   0  0  0  0  0  0  0  0  0  0  0  0
    0.5875    1.4333    0.0000 N   0  0  0  0  0  0  0  0  0  0  0  0
    1.8167    1.4458    0.0000 N   0  0  0  0  0  0  0  0  0  0  0  0
    0.8292    2.1833    0.0000 C   0  0  0  0  0  0  0  0  0  0  0  0
    1.5875    2.1833    0.0000 C   0  0  0  0  0  0  0  0  0  0  0  0
   -0.7333   -0.8542    0.0000 C   0  0  0  0  0  0  0  0  0  0  0  0
    1.2167    0.3000    0.0000 C   0  0  0  0  0  0  0  0  0  0  0  0
   -0.0833   -1.2292    0.0000 N   0  0  0  0  0  0  0  0  0  0  0  0
    0.5667   -0.0875    0.0000 C   0  0  0  0  0  0  0  0  0  0  0  0
    0.5667   -0.8542    0.0000 C   0  0  0  0  0  0  0  0  0  0  0  0
   -0.7333   -0.0875    0.0000 O   0  0  0  0  0  0  0  0  0  0  0  0
   -1.3958   -1.2292    0.0000 C   0  0  0  0  0  0  0  0  0  0  0  0
   -1.3958   -1.9875    0.0000 C   0  0  0  0  0  0  0  0  0  0  0  0
    1.8792   -0.0875    0.0000 C   0  0  0  0  0  0  0  0  0  0  0  0
    1.8792   -0.8542    0.0000 C   0  0  0  0  0  0  0  0  0  0  0  0
    0.4375    2.8500    0.0000 C   0  0  0  0  0  0  0  0  0  0  0  0
    1.9667    2.8500    0.0000 C   0  0  0  0  0  0  0  0  0  0  0  0
    1.2167   -1.2292    0.0000 C   0  0  0  0  0  0  0  0  0  0  0  0
   -2.0458   -2.3667    0.0000 C   0  0  0  0  0  0  0  0  0  0  0  0
   -0.7333   -2.3667    0.0000 C   0  0  0  0  0  0  0  0  0  0  0  0
    0.8292    3.5208    0.0000 C   0  0  0  0  0  0  0  0  0  0  0  0
    1.6000    3.5208    0.0000 C   0  0  0  0  0  0  0  0  0  0  0  0
   -0.7333   -3.1500    0.0000 C   0  0  0  0  0  0  0  0  0  0  0  0
   -2.0458   -3.1500    0.0000 C   0  0  0  0  0  0  0  0  0  0  0  0
   -1.3958   -3.5167    0.0000 C   0  0  0  0  0  0  0  0  0  0  0  0
  2  1  2  0  0  0  0
  3  1  1  0  0  0  0
  4  2  1  0  0  0  0
  5  3  1  0  0  0  0
  6  8  1  0  0  0  0
  7  1  1  0  0  0  0
  8 10  1  0  0  0  0
  9  7  1  0  0  0  0
 10  9  2  0  0  0  0
 11  6  2  0  0  0  0
 12  6  1  0  0  0  0
 13 12  1  0  0  0  0
 14  7  2  0  0  0  0
 15 14  1  0  0  0  0
 16  4  1  0  0  0  0
 17  5  1  0  0  0  0
 18 15  2  0  0  0  0
 19 13  1  0  0  0  0
 20 13  2  0  0  0  0
 21 16  2  0  0  0  0
 22 17  2  0  0  0  0
 23 20  1  0  0  0  0
 24 19  2  0  0  0  0
 25 23  2  0  0  0  0
  5  4  2  0  0  0  0
 18 10  1  0  0  0  0
 22 21  1  0  0  0  0
 25 24  1  0  0  0  0
M  END
> <#>
934

> <PLATE>
LAT012

> <ROW>
F

> <COL>
8

> <COORD>
F08

> <LATID>
LAT012F08

> <Supplier>
Chembridge

> <Suplier_CAT#>
5762498

> <Name>
Novel

> <Sec_Name>
241_G10

> <Concentration_(mM)>
2.5

> <IC50_(µM)>
19

> <Yeast_Active?>
-

> <Pubchem_CID>
NULL

$$$$
