
  -ISIS-  08130814242D

 26 27  0  0  0  0  0  0  0  0999 V2000
   -2.3083    0.2000    0.0000 C   0  0  0  0  0  0  0  0  0  0  0  0
   -2.4417   -0.4917    0.0000 C   0  0  0  0  0  0  0  0  0  0  0  0
   -0.4083    0.2125    0.0000 C   0  0  0  0  0  0  0  0  0  0  0  0
    0.8250   -0.0167    0.0000 N   0  0  0  0  0  0  0  0  0  0  0  0
    2.8667    0.7000    0.0000 C   0  0  0  0  0  0  0  0  0  0  0  0
   -3.1417   -0.7208    0.0000 C   0  0  0  0  0  0  0  0  0  0  0  0
   -1.6333    0.4458    0.0000 O   0  0  0  0  0  0  0  0  0  0  0  0
    0.1375   -0.2375    0.0000 N   0  0  0  0  0  0  0  0  0  0  0  0
    3.4375    0.2250    0.0000 C   0  0  0  0  0  0  0  0  0  0  0  0
   -2.8583    0.6792    0.0000 C   0  0  0  0  0  0  0  0  0  0  0  0
    2.2042    0.4625    0.0000 C   0  0  0  0  0  0  0  0  0  0  0  0
   -0.2958    0.9250    0.0000 O   0  0  0  0  0  0  0  0  0  0  0  0
   -1.0625   -0.0208    0.0000 C   0  0  0  0  0  0  0  0  0  0  0  0
    3.2917   -0.4750    0.0000 C   0  0  0  0  0  0  0  0  0  0  0  0
    1.3667   -0.4625    0.0000 C   0  0  0  0  0  0  0  0  0  0  0  0
    2.0667   -0.2375    0.0000 C   0  0  0  0  0  0  0  0  0  0  0  0
   -1.8958   -0.9375    0.0000 C   0  0  3  0  0  0  0  0  0  0  0  0
   -3.6833   -0.2750    0.0000 C   0  0  0  0  0  0  0  0  0  0  0  0
   -3.5333    0.4250    0.0000 C   0  0  0  0  0  0  0  0  0  0  0  0
    2.9583    1.4083    0.0000 O   0  0  0  0  0  0  0  0  0  0  0  0
    2.6167   -0.7167    0.0000 C   0  0  0  0  0  0  0  0  0  0  0  0
    4.1167    0.4458    0.0000 O   0  0  0  0  0  0  0  0  0  0  0  0
   -1.2417   -0.6750    0.0000 C   0  0  0  0  0  0  0  0  0  0  0  0
   -2.0083   -1.6625    0.0000 C   0  0  0  0  0  0  0  0  0  0  0  0
   -4.0750    0.8833    0.0000 C   0  0  0  0  0  0  0  0  0  0  0  0
    4.6375   -0.0208    0.0000 C   0  0  0  0  0  0  0  0  0  0  0  0
  2  1  2  0  0  0  0
  3 13  1  0  0  0  0
  4  8  1  0  0  0  0
  5 11  2  0  0  0  0
  6  2  1  0  0  0  0
  7  1  1  0  0  0  0
  8  3  1  0  0  0  0
  9 14  2  0  0  0  0
 10  1  1  0  0  0  0
 11 16  1  0  0  0  0
 12  3  2  0  0  0  0
 13  7  1  0  0  0  0
 14 21  1  0  0  0  0
 15  4  2  0  0  0  0
 16 15  1  0  0  0  0
 17  2  1  0  0  0  0
 18 19  1  0  0  0  0
 19 10  2  0  0  0  0
 20  5  1  0  0  0  0
 21 16  2  0  0  0  0
 22  9  1  0  0  0  0
 23 17  1  0  0  0  0
 24 17  1  0  0  0  0
 25 19  1  0  0  0  0
 26 22  1  0  0  0  0
 18  6  2  0  0  0  0
  9  5  1  0  0  0  0
M  END
> <#>
1868

> <PLATE>
LAT024

> <ROW>
D

> <COL>
5

> <COORD>
D05

> <LATID>
LAT024D05

> <Supplier>
Asinex

> <Suplier_CAT#>
BAS 00283955

> <Name>
Novel

> <Concentration_(mM)>
2.5

> <IC50_(µM)>
>100

> <Yeast_Active?>
-

> <Pubchem_CID>
1138596

$$$$
