
  -ISIS-  08130814242D

 22 23  0  0  0  0  0  0  0  0999 V2000
   -1.7125    0.7208    0.0000 C   0  0  0  0  0  0  0  0  0  0  0  0
   -1.7125   -0.2167    0.0000 C   0  0  0  0  0  0  0  0  0  0  0  0
   -2.5208    1.1958    0.0000 C   0  0  0  0  0  0  0  0  0  0  0  0
    3.5375   -0.4375    0.0000 N   0  3  0  0  0  0  0  0  0  0  0  0
   -2.5208   -0.6875    0.0000 N   0  0  0  0  0  0  0  0  0  0  0  0
   -3.3333    0.7208    0.0000 C   0  0  0  0  0  0  0  0  0  0  0  0
   -3.3333   -0.2167    0.0000 C   0  0  0  0  0  0  0  0  0  0  0  0
   -0.9000    1.1958    0.0000 C   0  0  0  0  0  0  0  0  0  0  0  0
    3.0667    0.3625    0.0000 C   0  0  0  0  0  0  0  0  0  0  0  0
   -0.0958    0.7208    0.0000 C   0  0  0  0  0  0  0  0  0  0  0  0
    3.1000   -1.2542    0.0000 O   0  5  0  0  0  0  0  0  0  0  0  0
   -0.9000   -0.6875    0.0000 O   0  0  0  0  0  0  0  0  0  0  0  0
    0.7167    1.1958    0.0000 C   0  0  0  0  0  0  0  0  0  0  0  0
    4.4542   -0.4292    0.0000 O   0  0  0  0  0  0  0  0  0  0  0  0
    2.1042    0.3708    0.0000 C   0  0  0  0  0  0  0  0  0  0  0  0
   -0.9000    2.1208    0.0000 O   0  0  0  0  0  0  0  0  0  0  0  0
    1.6500    1.1958    0.0000 C   0  0  0  0  0  0  0  0  0  0  0  0
   -2.5208    2.1208    0.0000 C   0  0  0  0  0  0  0  0  0  0  0  0
    3.5375    1.1833    0.0000 C   0  0  0  0  0  0  0  0  0  0  0  0
   -4.1458   -0.6875    0.0000 C   0  0  0  0  0  0  0  0  0  0  0  0
    3.0667    1.9958    0.0000 C   0  0  0  0  0  0  0  0  0  0  0  0
    2.1167    2.0000    0.0000 C   0  0  0  0  0  0  0  0  0  0  0  0
  2  1  1  0  0  0  0
  3  1  2  0  0  0  0
  4  9  1  0  0  0  0
  5  2  1  0  0  0  0
  6  3  1  0  0  0  0
  7  6  2  0  0  0  0
  8  1  1  0  0  0  0
  9 15  2  0  0  0  0
 10  8  1  0  0  0  0
 11  4  1  0  0  0  0
 12  2  2  0  0  0  0
 13 10  2  0  0  0  0
 14  4  2  0  0  0  0
 15 17  1  0  0  0  0
 16  8  2  0  0  0  0
 17 13  1  0  0  0  0
 18  3  1  0  0  0  0
 19 21  2  0  0  0  0
 20  7  1  0  0  0  0
 21 22  1  0  0  0  0
 22 17  2  0  0  0  0
  7  5  1  0  0  0  0
  9 19  1  0  0  0  0
M  CHG  2   4   1  11  -1
M  END
> <#>
654

> <PLATE>
LAT009

> <ROW>
F

> <COL>
3

> <COORD>
F03

> <LATID>
LAT009F03

> <Supplier>
Chembridge

> <Suplier_CAT#>
5527173

> <Name>
Novel

> <Sec_Name>
151_D05

> <Concentration_(mM)>
2.5

> <IC50_(µM)>
>100

> <Yeast_Active?>
-

> <Pubchem_CID>
2849988

$$$$
