
  -ISIS-  08130814242D

 25 28  0  0  0  0  0  0  0  0999 V2000
   -1.8125    1.0333    0.0000 C   0  0  0  0  0  0  0  0  0  0  0  0
   -1.8125    1.8333    0.0000 C   0  0  0  0  0  0  0  0  0  0  0  0
   -2.4958    0.6125    0.0000 C   0  0  0  0  0  0  0  0  0  0  0  0
   -2.4958    2.2333    0.0000 C   0  0  0  0  0  0  0  0  0  0  0  0
   -3.1958    1.8333    0.0000 C   0  0  0  0  0  0  0  0  0  0  0  0
   -3.1958    1.0333    0.0000 C   0  0  0  0  0  0  0  0  0  0  0  0
   -1.1125    0.6125    0.0000 C   0  0  0  0  0  0  0  0  0  0  0  0
   -0.4125    1.8333    0.0000 C   0  0  0  0  0  0  0  0  0  0  0  0
   -1.1125    2.2333    0.0000 C   0  0  0  0  0  0  0  0  0  0  0  0
   -0.4125    1.0333    0.0000 C   0  0  0  0  0  0  0  0  0  0  0  0
    0.3042    2.2333    0.0000 O   0  0  0  0  0  0  0  0  0  0  0  0
   -2.4958    3.0333    0.0000 O   0  0  0  0  0  0  0  0  0  0  0  0
   -2.4958   -0.1875    0.0000 O   0  0  0  0  0  0  0  0  0  0  0  0
   -1.1125   -0.1875    0.0000 O   0  0  0  0  0  0  0  0  0  0  0  0
   -1.1125    3.0333    0.0000 O   0  0  0  0  0  0  0  0  0  0  0  0
    0.9875    1.8333    0.0000 C   0  0  0  0  0  0  0  0  0  0  0  0
   -3.8958    0.6125    0.0000 C   0  0  0  0  0  0  0  0  0  0  0  0
   -3.8958    2.2333    0.0000 C   0  0  0  0  0  0  0  0  0  0  0  0
    0.9875    1.0333    0.0000 C   0  0  0  0  0  0  0  0  0  0  0  0
    1.6875    2.2333    0.0000 C   0  0  0  0  0  0  0  0  0  0  0  0
   -4.5958    1.8333    0.0000 C   0  0  0  0  0  0  0  0  0  0  0  0
   -4.5958    1.0333    0.0000 C   0  0  0  0  0  0  0  0  0  0  0  0
    2.3792    1.8333    0.0000 C   0  0  0  0  0  0  0  0  0  0  0  0
    1.6667    0.6333    0.0000 C   0  0  0  0  0  0  0  0  0  0  0  0
    2.3792    1.0333    0.0000 C   0  0  0  0  0  0  0  0  0  0  0  0
  2  1  2  0  0  0  0
  3  1  1  0  0  0  0
  4  2  1  0  0  0  0
  5  6  2  0  0  0  0
  6  3  1  0  0  0  0
  7  1  1  0  0  0  0
  8 10  1  0  0  0  0
  9  2  1  0  0  0  0
 10  7  2  0  0  0  0
 11  8  1  0  0  0  0
 12  4  2  0  0  0  0
 13  3  2  0  0  0  0
 14  7  1  0  0  0  0
 15  9  1  0  0  0  0
 16 11  1  0  0  0  0
 17  6  1  0  0  0  0
 18  5  1  0  0  0  0
 19 16  2  0  0  0  0
 20 16  1  0  0  0  0
 21 22  1  0  0  0  0
 22 17  2  0  0  0  0
 23 20  2  0  0  0  0
 24 19  1  0  0  0  0
 25 23  1  0  0  0  0
  8  9  2  0  0  0  0
  5  4  1  0  0  0  0
 21 18  2  0  0  0  0
 25 24  2  0  0  0  0
M  END
> <#>
1109

> <PLATE>
LAT014

> <ROW>
E

> <COL>
10

> <COORD>
E10

> <LATID>
LAT014E10

> <Supplier>
Chembridge

> <Suplier_CAT#>
5249376

> <Name>
Novel

> <Concentration_(mM)>
2.5

> <IC50_(µM)>
>100

> <Yeast_Active?>
-

> <Pubchem_CID>
NULL

$$$$
