
  -ISIS-  08130814242D

 26 28  0  0  0  0  0  0  0  0999 V2000
    8.8292   -9.3375    0.0000 S   0  0  3  0  0  0  0  0  0  0  0  0
    9.5792   -9.3375    0.0000 N   0  0  3  0  0  0  0  0  0  0  0  0
   14.0792   -9.3292    0.0000 N   0  3  0  0  0  0  0  0  0  0  0  0
   11.0792   -9.3500    0.0000 N   0  0  3  0  0  0  0  0  0  0  0  0
    8.0792   -9.3375    0.0000 C   0  0  0  0  0  0  0  0  0  0  0  0
    8.8375   -8.5875    0.0000 O   0  0  0  0  0  0  0  0  0  0  0  0
    8.8292  -10.0875    0.0000 O   0  0  0  0  0  0  0  0  0  0  0  0
    9.9542   -8.6875    0.0000 C   0  0  0  0  0  0  0  0  0  0  0  0
    9.9542   -9.9875    0.0000 C   0  0  0  0  0  0  0  0  0  0  0  0
   13.3292   -9.3375    0.0000 C   0  0  0  0  0  0  0  0  0  0  0  0
   14.4542   -9.9792    0.0000 O   0  5  0  0  0  0  0  0  0  0  0  0
   11.8292   -9.3375    0.0000 C   0  0  0  0  0  0  0  0  0  0  0  0
   14.4500   -8.6792    0.0000 O   0  0  0  0  0  0  0  0  0  0  0  0
   10.7042   -8.6875    0.0000 C   0  0  0  0  0  0  0  0  0  0  0  0
   10.7042  -10.0000    0.0000 C   0  0  0  0  0  0  0  0  0  0  0  0
   12.9500   -9.9875    0.0000 C   0  0  0  0  0  0  0  0  0  0  0  0
   12.9500   -8.6875    0.0000 C   0  0  0  0  0  0  0  0  0  0  0  0
   12.2000   -8.6875    0.0000 C   0  0  0  0  0  0  0  0  0  0  0  0
   12.2000   -9.9875    0.0000 C   0  0  0  0  0  0  0  0  0  0  0  0
    7.7042   -8.6875    0.0000 C   0  0  0  0  0  0  0  0  0  0  0  0
    7.7042   -9.9875    0.0000 C   0  0  0  0  0  0  0  0  0  0  0  0
    6.5792   -9.3375    0.0000 C   0  0  0  0  0  0  0  0  0  0  0  0
    6.9542   -9.9875    0.0000 C   0  0  0  0  0  0  0  0  0  0  0  0
    6.9542   -8.6875    0.0000 C   0  0  0  0  0  0  0  0  0  0  0  0
    5.8292   -9.3375    0.0000 O   0  0  0  0  0  0  0  0  0  0  0  0
    5.4542   -8.6875    0.0000 C   0  0  0  0  0  0  0  0  0  0  0  0
  2  1  1  0  0  0  0
  3 10  1  0  0  0  0
  4 15  1  0  0  0  0
  5  1  1  0  0  0  0
  6  1  2  0  0  0  0
  7  1  2  0  0  0  0
  8  2  1  0  0  0  0
  9  2  1  0  0  0  0
 10 16  2  0  0  0  0
 11  3  1  0  0  0  0
 12  4  1  0  0  0  0
 13  3  2  0  0  0  0
 14  8  1  0  0  0  0
 15  9  1  0  0  0  0
 16 19  1  0  0  0  0
 17 18  2  0  0  0  0
 18 12  1  0  0  0  0
 19 12  2  0  0  0  0
 20  5  2  0  0  0  0
 21  5  1  0  0  0  0
 22 23  1  0  0  0  0
 23 21  2  0  0  0  0
 24 20  1  0  0  0  0
 25 22  1  0  0  0  0
 26 25  1  0  0  0  0
 22 24  2  0  0  0  0
 14  4  1  0  0  0  0
 10 17  1  0  0  0  0
M  CHG  2   3   1  11  -1
M  END
> <#>
2046

> <PLATE>
LAT026

> <ROW>
F

> <COL>
7

> <COORD>
F07

> <LATID>
LAT026F07

> <Supplier>
Chembridge

> <Suplier_CAT#>
5541041

> <Sec_Name>
157_E09

> <Concentration_(mM)>
2.5

> <IC50_(µM)>
>100

> <Yeast_Active?>
-

> <Pubchem_CID>
2851147

$$$$
