
  -ISIS-  08130814242D

 14 14  0  0  0  0  0  0  0  0999 V2000
    4.8917   -8.3125    0.0000 C   0  0  0  0  0  0  0  0  0  0  0  0
    4.2042   -8.0042    0.0000 N   0  3  0  0  0  0  0  0  0  0  0  0
    5.5375   -7.9375    0.0000 O   0  0  0  0  0  0  0  0  0  0  0  0
    5.0500   -9.0500    0.0000 C   0  0  0  0  0  0  0  0  0  0  0  0
    8.0542   -6.7292    0.0000 C   0  0  0  0  0  0  0  0  0  0  0  0
    6.0917   -8.4417    0.0000 C   0  0  0  0  0  0  0  0  0  0  0  0
    7.0792   -7.5792    0.0000 N   0  0  0  0  0  0  0  0  0  0  0  0
    5.7917   -9.1250    0.0000 C   0  0  0  0  0  0  0  0  0  0  0  0
    4.1250   -7.2667    0.0000 O   0  5  0  0  0  0  0  0  0  0  0  0
    3.6000   -8.4500    0.0000 O   0  0  0  0  0  0  0  0  0  0  0  0
    6.8375   -8.2917    0.0000 C   0  0  0  0  0  0  0  0  0  0  0  0
    7.8167   -7.4375    0.0000 N   0  0  0  0  0  0  0  0  0  0  0  0
    8.7917   -6.5792    0.0000 O   0  0  0  0  0  0  0  0  0  0  0  0
    7.5667   -6.1625    0.0000 N   0  0  0  0  0  0  0  0  0  0  0  0
  2  1  1  0  0  0  0
  3  1  1  0  0  0  0
  4  1  2  0  0  0  0
  5 12  1  0  0  0  0
  6  3  1  0  0  0  0
  7 11  2  0  0  0  0
  8  4  1  0  0  0  0
  9  2  1  0  0  0  0
 10  2  2  0  0  0  0
 11  6  1  0  0  0  0
 12  7  1  0  0  0  0
 13  5  2  0  0  0  0
 14  5  1  0  0  0  0
  8  6  2  0  0  0  0
M  CHG  2   2   1   9  -1
M  END
> <#>
104

> <PLATE>
LAT002

> <ROW>
H

> <COL>
4

> <COORD>
H04

> <LATID>
LAT002H04

> <Supplier>
Microsource

> <Suplier_CAT#>
01500434

> <Name>
Nitrofurazone

> <Concentration_(mM)>
2.5

> <IC50_(µM)>
27

> <Yeast_Active?>
-

> <Pubchem_CID>
1839

> <Description>
Antiinfective (Topical)

$$$$
