
  -ISIS-  08130814242D

 31 33  0  0  0  0  0  0  0  0999 V2000
    5.6542    4.1250    0.0000 N   0  0  3  0  0  0  0  0  0  0  0  0
    6.3667    4.3542    0.0000 C   0  0  0  0  0  0  0  0  0  0  0  0
    6.3667    5.1042    0.0000 N   0  0  0  0  0  0  0  0  0  0  0  0
    5.2125    4.7292    0.0000 C   0  0  0  0  0  0  0  0  0  0  0  0
    5.6542    5.3417    0.0000 N   0  0  0  0  0  0  0  0  0  0  0  0
    1.8375    2.7875    0.0000 C   0  0  0  0  0  0  0  0  0  0  0  0
    2.9625    2.1458    0.0000 C   0  0  0  0  0  0  0  0  0  0  0  0
    2.2125    2.1458    0.0000 C   0  0  0  0  0  0  0  0  0  0  0  0
    2.9625    3.4375    0.0000 C   0  0  0  0  0  0  0  0  0  0  0  0
    2.2125    3.4375    0.0000 C   0  0  0  0  0  0  0  0  0  0  0  0
    3.3375    2.7875    0.0000 C   0  0  0  0  0  0  0  0  0  0  0  0
    4.4625    4.7292    0.0000 S   0  0  0  0  0  0  0  0  0  0  0  0
    3.3375    4.0792    0.0000 C   0  0  0  0  0  0  0  0  0  0  0  0
    3.3375    1.4958    0.0000 C   0  0  3  0  0  0  0  0  0  0  0  0
    1.0875    2.7875    0.0000 C   0  0  3  0  0  0  0  0  0  0  0  0
    6.9750    3.9208    0.0000 C   0  0  0  0  0  0  0  0  0  0  0  0
    4.0875    4.0792    0.0000 C   0  0  0  0  0  0  0  0  0  0  0  0
    8.1875    3.0458    0.0000 N   0  0  0  0  0  0  0  0  0  0  0  0
    2.9625    4.7292    0.0000 O   0  0  0  0  0  0  0  0  0  0  0  0
    5.4250    3.4208    0.0000 C   0  0  0  0  0  0  0  0  0  0  0  0
    1.8375    1.4958    0.0000 O   0  0  0  0  0  0  0  0  0  0  0  0
    4.0625    1.6833    0.0000 C   0  0  0  0  0  0  0  0  0  0  0  0
    2.6542    1.1750    0.0000 C   0  0  0  0  0  0  0  0  0  0  0  0
    3.5917    0.7875    0.0000 C   0  0  0  0  0  0  0  0  0  0  0  0
    0.8917    3.5208    0.0000 C   0  0  0  0  0  0  0  0  0  0  0  0
    0.3500    2.6583    0.0000 C   0  0  0  0  0  0  0  0  0  0  0  0
    1.1542    2.0458    0.0000 C   0  0  0  0  0  0  0  0  0  0  0  0
    8.2667    3.7958    0.0000 C   0  0  0  0  0  0  0  0  0  0  0  0
    7.5042    2.7333    0.0000 C   0  0  0  0  0  0  0  0  0  0  0  0
    7.6542    4.2167    0.0000 C   0  0  0  0  0  0  0  0  0  0  0  0
    6.8917    3.1750    0.0000 C   0  0  0  0  0  0  0  0  0  0  0  0
  2  1  1  0  0  0  0
  3  2  2  0  0  0  0
  4  1  1  0  0  0  0
  5  4  2  0  0  0  0
  6 10  2  0  0  0  0
  7 11  1  0  0  0  0
  8  7  2  0  0  0  0
  9 13  1  0  0  0  0
 10  9  1  0  0  0  0
 11  9  2  0  0  0  0
 12  4  1  0  0  0  0
 13 17  1  0  0  0  0
 14  7  1  0  0  0  0
 15  6  1  0  0  0  0
 16  2  1  0  0  0  0
 17 12  1  0  0  0  0
 18 29  1  0  0  0  0
 19 13  2  0  0  0  0
 20  1  1  0  0  0  0
 21  8  1  0  0  0  0
 22 14  1  0  0  0  0
 23 14  1  0  0  0  0
 24 14  1  0  0  0  0
 25 15  1  0  0  0  0
 26 15  1  0  0  0  0
 27 15  1  0  0  0  0
 28 30  1  0  0  0  0
 29 31  2  0  0  0  0
 30 16  2  0  0  0  0
 31 16  1  0  0  0  0
  3  5  1  0  0  0  0
 28 18  2  0  0  0  0
  8  6  1  0  0  0  0
M  END
> <#>
1395

> <PLATE>
LAT018

> <ROW>
C

> <COL>
6

> <COORD>
C06

> <LATID>
LAT018C06

> <Supplier>
Chembridge

> <Suplier_CAT#>
7959515

> <Name>
Novel

> <Concentration_(mM)>
2.5

> <IC50_(µM)>
69

> <Yeast_Active?>
-

> <Pubchem_CID>
1251502

$$$$
