
  -ISIS-  08130814242D

 21 22  0  0  0  0  0  0  0  0999 V2000
    0.0792    0.4125    0.0000 C   0  0  0  0  0  0  0  0  0  0  0  0
    0.8542    0.8500    0.0000 C   0  0  0  0  0  0  0  0  0  0  0  0
   -0.7000    0.8708    0.0000 C   0  0  0  0  0  0  0  0  0  0  0  0
    1.6375   -0.5042    0.0000 C   0  0  0  0  0  0  0  0  0  0  0  0
    2.4000   -0.9667    0.0000 C   0  0  0  0  0  0  0  0  0  0  0  0
    1.6375    0.3958    0.0000 C   0  0  0  0  0  0  0  0  0  0  0  0
   -1.4833    0.4125    0.0000 C   0  0  0  0  0  0  0  0  0  0  0  0
   -0.7000    1.7708    0.0000 O   0  0  0  0  0  0  0  0  0  0  0  0
    2.4000    0.8500    0.0000 C   0  0  0  0  0  0  0  0  0  0  0  0
   -1.4833   -0.5042    0.0000 C   0  0  0  0  0  0  0  0  0  0  0  0
   -2.2625    0.8500    0.0000 C   0  0  0  0  0  0  0  0  0  0  0  0
    3.1792   -0.5292    0.0000 C   0  0  0  0  0  0  0  0  0  0  0  0
   -3.0458   -0.4875    0.0000 C   0  0  0  0  0  0  0  0  0  0  0  0
    3.1792    0.4125    0.0000 C   0  0  0  0  0  0  0  0  0  0  0  0
    0.8375   -0.9875    0.0000 O   0  0  0  0  0  0  0  0  0  0  0  0
   -3.0458    0.4125    0.0000 C   0  0  0  0  0  0  0  0  0  0  0  0
   -2.2625   -0.9500    0.0000 C   0  0  0  0  0  0  0  0  0  0  0  0
   -3.8458   -0.9292    0.0000 O   0  0  0  0  0  0  0  0  0  0  0  0
    3.9542   -1.0042    0.0000 O   0  0  0  0  0  0  0  0  0  0  0  0
    0.8375   -1.8875    0.0000 C   0  0  0  0  0  0  0  0  0  0  0  0
    4.7542   -0.5667    0.0000 C   0  0  0  0  0  0  0  0  0  0  0  0
  2  1  2  0  0  0  0
  3  1  1  0  0  0  0
  4  6  2  0  0  0  0
  5  4  1  0  0  0  0
  6  2  1  0  0  0  0
  7  3  1  0  0  0  0
  8  3  2  0  0  0  0
  9  6  1  0  0  0  0
 10  7  2  0  0  0  0
 11  7  1  0  0  0  0
 12 14  1  0  0  0  0
 13 16  1  0  0  0  0
 14  9  2  0  0  0  0
 15  4  1  0  0  0  0
 16 11  2  0  0  0  0
 17 10  1  0  0  0  0
 18 13  1  0  0  0  0
 19 12  1  0  0  0  0
 20 15  1  0  0  0  0
 21 19  1  0  0  0  0
 13 17  2  0  0  0  0
  5 12  2  0  0  0  0
M  END
> <#>
1230

> <PLATE>
LAT016

> <ROW>
F

> <COL>
5

> <COORD>
F05

> <LATID>
LAT016F05

> <Supplier>
Chembridge

> <Suplier_CAT#>
6151086

> <Name>
Novel

> <Concentration_(mM)>
2.5

> <IC50_(µM)>
>100

> <Yeast_Active?>
-

> <Pubchem_CID>
2888318

$$$$
