
  -ISIS-  08130814242D

 47 49  0  0  0  0  0  0  0  0999 V2000
   -3.2836    1.1739    0.0000 C   0  0  0  0  0  0  0  0  0  0  0  0
   -2.8343    1.9419    0.0000 C   0  0  2  0  0  0  0  0  0  0  0  0
   -1.9438    1.9396    0.0000 C   0  0  1  0  0  0  0  0  0  0  0  0
   -1.4984    1.1651    0.0000 C   0  0  2  0  0  0  0  0  0  0  0  0
   -1.9478    0.3929    0.0000 C   0  0  1  0  0  0  0  0  0  0  0  0
   -2.8383    0.3952    0.0000 C   0  0  1  0  0  0  0  0  0  0  0  0
   -3.2876   -0.3728    0.0000 N   0  0  0  0  0  0  0  0  0  0  0  0
   -1.5024   -0.3816    0.0000 O   0  0  0  0  0  0  0  0  0  0  0  0
   -1.9518   -1.1496    0.0000 C   0  0  3  0  0  0  0  0  0  0  0  0
   -1.5106   -1.9241    0.0000 C   0  0  1  0  0  0  0  0  0  0  0  0
   -1.9558   -2.6963    0.0000 C   0  0  2  0  0  0  0  0  0  0  0  0
   -2.8463   -2.6940    0.0000 C   0  0  1  0  0  0  0  0  0  0  0  0
   -3.2916   -1.9195    0.0000 C   0  0  2  0  0  0  0  0  0  0  0  0
   -2.8423   -1.1473    0.0000 O   0  0  0  0  0  0  0  0  0  0  0  0
   -4.1822   -1.9172    0.0000 C   0  0  0  0  0  0  0  0  0  0  0  0
   -4.6273   -2.6894    0.0000 N   0  0  0  0  0  0  0  0  0  0  0  0
   -3.2957   -3.4620    0.0000 O   0  0  0  0  0  0  0  0  0  0  0  0
   -1.5146   -3.4708    0.0000 O   0  0  0  0  0  0  0  0  0  0  0  0
   -0.6159   -1.9306    0.0000 N   0  0  0  0  0  0  0  0  0  0  0  0
   -0.6079    1.1628    0.0000 O   0  0  0  0  0  0  0  0  0  0  0  0
   -0.1667    0.3883    0.0000 C   0  0  3  0  0  0  0  0  0  0  0  0
    0.7203    0.2905    0.0000 C   0  0  1  0  0  0  0  0  0  0  0  0
    0.9042   -0.5834    0.0000 C   0  0  1  0  0  0  0  0  0  0  0  0
    0.1297   -1.0245    0.0000 C   0  0  2  0  0  0  0  0  0  0  0  0
   -0.5274   -0.4249    0.0000 O   0  0  0  0  0  0  0  0  0  0  0  0
    0.0360   -1.9116    0.0000 C   0  0  0  0  0  0  0  0  0  0  0  0
    0.7533   -2.4421    0.0000 O   0  0  0  0  0  0  0  0  0  0  0  0
    1.7174   -0.9482    0.0000 O   0  0  0  0  0  0  0  0  0  0  0  0
    2.4373   -0.4297    0.0000 C   0  0  2  0  0  0  0  0  0  0  0  0
    3.2505   -0.7903    0.0000 C   0  0  1  0  0  0  0  0  0  0  0  0
    3.9705   -0.2760    0.0000 C   0  0  2  0  0  0  0  0  0  0  0  0
    3.8814    0.6115    0.0000 C   0  0  1  0  0  0  0  0  0  0  0  0
    3.0724    0.9805    0.0000 C   0  0  1  0  0  0  0  0  0  0  0  0
    2.3483    0.4578    0.0000 O   0  0  0  0  0  0  0  0  0  0  0  0
    2.9834    1.8680    0.0000 C   0  0  0  0  0  0  0  0  0  0  0  0
    3.6992    2.3907    0.0000 N   0  0  0  0  0  0  0  0  0  0  0  0
    4.6098    1.1342    0.0000 O   0  0  0  0  0  0  0  0  0  0  0  0
    4.7836   -0.6367    0.0000 O   0  0  0  0  0  0  0  0  0  0  0  0
    3.3395   -1.6778    0.0000 N   0  0  0  0  0  0  0  0  0  0  0  0
    1.3158    0.9475    0.0000 O   0  0  0  0  0  0  0  0  0  0  0  0
   -1.4902    2.7076    0.0000 O   0  0  0  0  0  0  0  0  0  0  0  0
   -3.2713    2.7164    0.0000 N   0  0  0  0  0  0  0  0  0  0  0  0
    2.0159   -4.2318    0.0000 O   0  0  0  0  0  0  0  0  0  0  0  0
    2.0159   -3.3371    0.0000 S   0  0  3  0  0  0  0  0  0  0  0  0
    1.1254   -3.3371    0.0000 O   0  0  0  0  0  0  0  0  0  0  0  0
    2.9065   -3.3371    0.0000 O   0  0  0  0  0  0  0  0  0  0  0  0
    2.0159   -2.4466    0.0000 O   0  0  0  0  0  0  0  0  0  0  0  0
  4  5  1  0  0  0  0
  5  6  1  0  0  0  0
  1  6  1  0  0  0  0
  6  7  1  1  0  0  0
  5  8  1  6  0  0  0
  8  9  1  0  0  0  0
  9 10  1  0  0  0  0
 10 11  1  0  0  0  0
 11 12  1  0  0  0  0
 12 13  1  0  0  0  0
 13 14  1  0  0  0  0
  9 14  1  0  0  0  0
 13 15  1  1  0  0  0
 15 16  1  0  0  0  0
 12 17  1  6  0  0  0
 11 18  1  1  0  0  0
 10 19  1  6  0  0  0
  4 20  1  1  0  0  0
 20 21  1  0  0  0  0
 21 22  1  0  0  0  0
 22 23  1  0  0  0  0
 23 24  1  0  0  0  0
 24 25  1  0  0  0  0
 21 25  1  0  0  0  0
 24 26  1  1  0  0  0
 26 27  1  0  0  0  0
 23 28  1  6  0  0  0
 29 28  1  1  0  0  0
 29 30  1  0  0  0  0
 30 31  1  0  0  0  0
 31 32  1  0  0  0  0
 32 33  1  0  0  0  0
 33 34  1  0  0  0  0
 29 34  1  0  0  0  0
 33 35  1  1  0  0  0
 35 36  1  0  0  0  0
 32 37  1  1  0  0  0
 31 38  1  6  0  0  0
 30 39  1  1  0  0  0
 22 40  1  6  0  0  0
  3 41  1  6  0  0  0
  2 42  1  1  0  0  0
  1  2  1  0  0  0  0
  2  3  1  0  0  0  0
  3  4  1  0  0  0  0
 43 44  1  0  0  0  0
 44 45  2  0  0  0  0
 44 46  2  0  0  0  0
 44 47  1  0  0  0  0
M  END
> <#>
401

> <PLATE>
LAT006

> <ROW>
A

> <COL>
2

> <COORD>
A02

> <LATID>
LAT006A02

> <Supplier>
Calbiochem

> <Suplier_CAT#>
4801

> <Name>
Neomycin Sulfate

> <Concentration_(mM)>
2.5

> <IC50_(µM)>
28

> <Yeast_Active?>
-

> <Pubchem_CID>
62403

$$$$
