
  -ISIS-  08130814242D

 25 29  0  0  0  0  0  0  0  0999 V2000
    2.4667   -0.4667    0.0000 C   0  0  0  0  0  0  0  0  0  0  0  0
    1.7625   -0.8792    0.0000 C   0  0  0  0  0  0  0  0  0  0  0  0
    3.1875   -1.6875    0.0000 N   0  0  0  0  0  0  0  0  0  0  0  0
    3.1792   -0.8667    0.0000 C   0  0  3  0  0  0  0  0  0  0  0  0
    1.7667   -1.6917    0.0000 C   0  0  0  0  0  0  0  0  0  0  0  0
    2.4792   -2.1042    0.0000 C   0  0  0  0  0  0  0  0  0  0  0  0
    2.4625    0.3458    0.0000 C   0  0  0  0  0  0  0  0  0  0  0  0
    1.0542   -2.1125    0.0000 C   0  0  0  0  0  0  0  0  0  0  0  0
    3.8917   -0.4542    0.0000 C   0  0  0  0  0  0  0  0  0  0  0  0
    2.4875   -2.9292    0.0000 C   0  0  0  0  0  0  0  0  0  0  0  0
    3.1750    0.7625    0.0000 O   0  0  0  0  0  0  0  0  0  0  0  0
    1.0542   -2.9375    0.0000 C   0  0  0  0  0  0  0  0  0  0  0  0
    1.7750   -3.3500    0.0000 C   0  0  0  0  0  0  0  0  0  0  0  0
    1.0500   -0.4792    0.0000 C   0  0  0  0  0  0  0  0  0  0  0  0
    1.7542    0.7500    0.0000 C   0  0  0  0  0  0  0  0  0  0  0  0
    1.0417    0.3375    0.0000 C   0  0  0  0  0  0  0  0  0  0  0  0
    0.3417   -1.7000    0.0000 C   0  0  0  0  0  0  0  0  0  0  0  0
    4.6042   -0.8625    0.0000 C   0  0  0  0  0  0  0  0  0  0  0  0
    3.8792    0.3708    0.0000 C   0  0  0  0  0  0  0  0  0  0  0  0
    0.3417   -3.3542    0.0000 C   0  0  0  0  0  0  0  0  0  0  0  0
   -0.3708   -2.1125    0.0000 C   0  0  0  0  0  0  0  0  0  0  0  0
    5.3167   -0.4417    0.0000 C   0  0  0  0  0  0  0  0  0  0  0  0
    4.5917    0.7875    0.0000 C   0  0  0  0  0  0  0  0  0  0  0  0
   -0.3708   -2.9417    0.0000 C   0  0  0  0  0  0  0  0  0  0  0  0
    5.3042    0.3833    0.0000 C   0  0  0  0  0  0  0  0  0  0  0  0
  2  1  2  0  0  0  0
  3  4  1  0  0  0  0
  4  1  1  0  0  0  0
  5  2  1  0  0  0  0
  6  3  1  0  0  0  0
  7  1  1  0  0  0  0
  8  5  2  0  0  0  0
  9  4  1  0  0  0  0
 10  6  2  0  0  0  0
 11  7  2  0  0  0  0
 12  8  1  0  0  0  0
 13 10  1  0  0  0  0
 14  2  1  0  0  0  0
 15  7  1  0  0  0  0
 16 15  1  0  0  0  0
 17  8  1  0  0  0  0
 18  9  2  0  0  0  0
 19  9  1  0  0  0  0
 20 12  1  0  0  0  0
 21 17  2  0  0  0  0
 22 18  1  0  0  0  0
 23 19  2  0  0  0  0
 24 21  1  0  0  0  0
 25 23  1  0  0  0  0
 14 16  1  0  0  0  0
  6  5  1  0  0  0  0
 25 22  2  0  0  0  0
 13 12  2  0  0  0  0
 24 20  2  0  0  0  0
M  END
> <#>
1969

> <PLATE>
LAT025

> <ROW>
A

> <COL>
8

> <COORD>
A08

> <LATID>
LAT025A08

> <Supplier>
Chembridge

> <Suplier_CAT#>
5647582

> <Concentration_(mM)>
2.5

> <IC50_(µM)>
inactive

> <Yeast_Active?>
-

> <Pubchem_CID>
1240367

$$$$
