
  -ISIS-  08130814242D

 31 35  0  0  0  0  0  0  0  0999 V2000
    0.0500    0.5625    0.0000 N   0  0  3  0  0  0  0  0  0  0  0  0
    0.0500   -0.1500    0.0000 C   0  0  0  0  0  0  0  0  0  0  0  0
    1.2500    0.5625    0.0000 C   0  0  0  0  0  0  0  0  0  0  0  0
    0.6500    0.9125    0.0000 C   0  0  3  0  0  0  0  0  0  0  0  0
   -0.6458    0.7708    0.0000 C   0  0  0  0  0  0  0  0  0  0  0  0
    0.6500   -0.4667    0.0000 N   0  0  0  0  0  0  0  0  0  0  0  0
   -1.0458    0.2458    0.0000 C   0  0  0  0  0  0  0  0  0  0  0  0
    1.2500   -0.1500    0.0000 C   0  0  0  0  0  0  0  0  0  0  0  0
   -0.6458   -0.3500    0.0000 S   0  0  0  0  0  0  0  0  0  0  0  0
    0.6500    1.6000    0.0000 C   0  0  0  0  0  0  0  0  0  0  0  0
   -1.7333    0.3000    0.0000 C   0  0  0  0  0  0  0  0  0  0  0  0
    1.8500    0.9208    0.0000 C   0  0  0  0  0  0  0  0  0  0  0  0
   -2.1208   -0.2500    0.0000 C   0  0  0  0  0  0  0  0  0  0  0  0
    1.2500    1.9583    0.0000 C   0  0  0  0  0  0  0  0  0  0  0  0
    1.2500    2.6333    0.0000 C   0  0  0  0  0  0  0  0  0  0  0  0
   -1.8500   -0.8542    0.0000 S   0  0  0  0  0  0  0  0  0  0  0  0
    0.6500    2.9833    0.0000 C   0  0  0  0  0  0  0  0  0  0  0  0
   -0.8625    1.4125    0.0000 O   0  0  0  0  0  0  0  0  0  0  0  0
    1.7500    3.1208    0.0000 O   0  0  0  0  0  0  0  0  0  0  0  0
    0.7500    3.6958    0.0000 O   0  0  0  0  0  0  0  0  0  0  0  0
    0.0542    1.9583    0.0000 C   0  0  0  0  0  0  0  0  0  0  0  0
    1.4292    3.7500    0.0000 C   0  0  0  0  0  0  0  0  0  0  0  0
   -2.4125   -1.3167    0.0000 C   0  0  0  0  0  0  0  0  0  0  0  0
    1.8500    1.6333    0.0000 O   0  0  0  0  0  0  0  0  0  0  0  0
   -2.8500   -0.3000    0.0000 C   0  0  0  0  0  0  0  0  0  0  0  0
   -3.0000   -0.9500    0.0000 C   0  0  0  0  0  0  0  0  0  0  0  0
    0.0542    2.6333    0.0000 C   0  0  0  0  0  0  0  0  0  0  0  0
    2.4042    0.5458    0.0000 O   0  0  0  0  0  0  0  0  0  0  0  0
    1.8167   -0.5000    0.0000 C   0  0  0  0  0  0  0  0  0  0  0  0
    3.0542    0.8125    0.0000 C   0  0  0  0  0  0  0  0  0  0  0  0
    3.6500    0.3958    0.0000 C   0  0  0  0  0  0  0  0  0  0  0  0
  2  1  1  0  0  0  0
  3  4  1  0  0  0  0
  4  1  1  0  0  0  0
  5  1  1  0  0  0  0
  6  2  2  0  0  0  0
  7  5  1  0  0  0  0
  8  3  2  0  0  0  0
  9  2  1  0  0  0  0
 10  4  1  0  0  0  0
 11  7  2  0  0  0  0
 12  3  1  0  0  0  0
 13 11  1  0  0  0  0
 14 10  2  0  0  0  0
 15 14  1  0  0  0  0
 16 13  1  0  0  0  0
 17 27  1  0  0  0  0
 18  5  2  0  0  0  0
 19 15  1  0  0  0  0
 20 17  1  0  0  0  0
 21 10  1  0  0  0  0
 22 19  1  0  0  0  0
 23 16  1  0  0  0  0
 24 12  2  0  0  0  0
 25 13  2  0  0  0  0
 26 25  1  0  0  0  0
 27 21  2  0  0  0  0
 28 12  1  0  0  0  0
 29  8  1  0  0  0  0
 30 28  1  0  0  0  0
 31 30  1  0  0  0  0
  7  9  1  0  0  0  0
  8  6  1  0  0  0  0
 17 15  2  0  0  0  0
 26 23  2  0  0  0  0
 20 22  1  0  0  0  0
M  END
> <#>
2062

> <PLATE>
LAT026

> <ROW>
F

> <COL>
9

> <COORD>
F09

> <LATID>
LAT026F09

> <Supplier>
Chembridge

> <Suplier_CAT#>
5648782

> <Sec_Name>
201_C07

> <Concentration_(mM)>
2.5

> <IC50_(µM)>
inactive

> <Yeast_Active?>
-

> <Pubchem_CID>
1070350

$$$$
