
  -ISIS-  08130814242D

 18 19  0  0  0  0  0  0  0  0999 V2000
   -0.9458    0.3125    0.0000 C   0  0  0  0  0  0  0  0  0  0  0  0
   -0.4500    0.5958    0.0000 C   0  0  0  0  0  0  0  0  0  0  0  0
   -0.9833   -0.2500    0.0000 O   0  0  0  0  0  0  0  0  0  0  0  0
   -1.5500   -0.3667    0.0000 C   0  0  0  0  0  0  0  0  0  0  0  0
    0.5667    0.5958    0.0000 N   0  0  0  0  0  0  0  0  0  0  0  0
    0.0667    0.3125    0.0000 N   0  0  0  0  0  0  0  0  0  0  0  0
   -1.4625    0.5458    0.0000 C   0  0  0  0  0  0  0  0  0  0  0  0
    1.0500    0.3125    0.0000 C   0  0  0  0  0  0  0  0  0  0  0  0
   -1.8458    0.1000    0.0000 C   0  0  0  0  0  0  0  0  0  0  0  0
    1.5500    0.6125    0.0000 C   0  0  0  0  0  0  0  0  0  0  0  0
    2.0500    0.3333    0.0000 N   0  0  0  0  0  0  0  0  0  0  0  0
   -0.4500    1.1708    0.0000 O   0  0  0  0  0  0  0  0  0  0  0  0
   -1.7958   -0.9000    0.0000 Br  0  0  0  0  0  0  0  0  0  0  0  0
    1.0500   -0.2667    0.0000 C   0  0  0  0  0  0  0  0  0  0  0  0
    2.5500    0.6125    0.0000 C   0  0  0  0  0  0  0  0  0  0  0  0
    1.5500    1.1708    0.0000 C   0  0  0  0  0  0  0  0  0  0  0  0
    2.5500    1.1708    0.0000 C   0  0  0  0  0  0  0  0  0  0  0  0
    2.0500    1.4500    0.0000 C   0  0  0  0  0  0  0  0  0  0  0  0
  2  1  1  0  0  0  0
  3  1  1  0  0  0  0
  4  3  1  0  0  0  0
  5  6  1  0  0  0  0
  6  2  1  0  0  0  0
  7  1  2  0  0  0  0
  8  5  2  0  0  0  0
  9  7  1  0  0  0  0
 10  8  1  0  0  0  0
 11 10  1  0  0  0  0
 12  2  2  0  0  0  0
 13  4  1  0  0  0  0
 14  8  1  0  0  0  0
 15 11  2  0  0  0  0
 16 10  2  0  0  0  0
 17 18  2  0  0  0  0
 18 16  1  0  0  0  0
  9  4  2  0  0  0  0
 17 15  1  0  0  0  0
M  END
> <#>
1796

> <PLATE>
LAT023

> <ROW>
D

> <COL>
6

> <COORD>
D06

> <LATID>
LAT023D06

> <Supplier>
Chembridge

> <Suplier_CAT#>
5573287

> <Name>
Novel

> <Sec_Name>
176_E09

> <Concentration_(mM)>
2.5

> <IC50_(µM)>
>100

> <Yeast_Active?>
+

> <Pubchem_CID>
872190

$$$$
