
  -ISIS-  08130814242D

 26 29  0  0  0  0  0  0  0  0999 V2000
   -1.9708   -0.0917    0.0000 C   0  0  0  0  0  0  0  0  0  0  0  0
   -1.3958   -0.2792    0.0000 O   0  0  0  0  0  0  0  0  0  0  0  0
   -1.9708    0.5208    0.0000 C   0  0  0  0  0  0  0  0  0  0  0  0
    2.2500    0.7625    0.0000 N   0  0  3  0  0  0  0  0  0  0  0  0
   -1.0500    0.2208    0.0000 C   0  0  0  0  0  0  0  0  0  0  0  0
   -1.3958    0.7000    0.0000 C   0  0  0  0  0  0  0  0  0  0  0  0
   -0.1500    0.7458    0.0000 N   0  0  0  0  0  0  0  0  0  0  0  0
   -2.4708   -0.4000    0.0000 C   0  0  0  0  0  0  0  0  0  0  0  0
    1.6500    0.7458    0.0000 C   0  0  0  0  0  0  0  0  0  0  0  0
   -0.4500    0.2458    0.0000 C   0  0  0  0  0  0  0  0  0  0  0  0
    3.4500    0.7625    0.0000 O   0  0  0  0  0  0  0  0  0  0  0  0
    1.3500    1.2625    0.0000 C   0  0  0  0  0  0  0  0  0  0  0  0
    1.3500    0.2208    0.0000 C   0  0  0  0  0  0  0  0  0  0  0  0
   -2.4708   -1.0000    0.0000 C   0  0  0  0  0  0  0  0  0  0  0  0
   -2.9958   -0.0917    0.0000 C   0  0  0  0  0  0  0  0  0  0  0  0
    0.4500    0.7458    0.0000 C   0  0  0  0  0  0  0  0  0  0  0  0
   -3.5125   -1.0000    0.0000 C   0  0  0  0  0  0  0  0  0  0  0  0
    0.7500    1.2625    0.0000 C   0  0  0  0  0  0  0  0  0  0  0  0
    0.7500    0.2208    0.0000 C   0  0  0  0  0  0  0  0  0  0  0  0
   -3.5125   -0.4000    0.0000 C   0  0  0  0  0  0  0  0  0  0  0  0
   -2.9958   -1.3000    0.0000 C   0  0  0  0  0  0  0  0  0  0  0  0
   -4.0333   -1.3000    0.0000 Cl  0  0  0  0  0  0  0  0  0  0  0  0
    2.5500    1.2625    0.0000 C   0  0  0  0  0  0  0  0  0  0  0  0
    2.5500    0.2458    0.0000 C   0  0  0  0  0  0  0  0  0  0  0  0
    3.1500    1.2625    0.0000 C   0  0  0  0  0  0  0  0  0  0  0  0
    3.1500    0.2208    0.0000 C   0  0  0  0  0  0  0  0  0  0  0  0
  2  1  1  0  0  0  0
  3  1  2  0  0  0  0
  4  9  1  0  0  0  0
  5  2  1  0  0  0  0
  6  3  1  0  0  0  0
  7 10  2  0  0  0  0
  8  1  1  0  0  0  0
  9 13  1  0  0  0  0
 10  5  1  0  0  0  0
 11 26  1  0  0  0  0
 12 18  1  0  0  0  0
 13 19  2  0  0  0  0
 14  8  2  0  0  0  0
 15  8  1  0  0  0  0
 16  7  1  0  0  0  0
 17 20  1  0  0  0  0
 18 16  2  0  0  0  0
 19 16  1  0  0  0  0
 20 15  2  0  0  0  0
 21 14  1  0  0  0  0
 22 17  1  0  0  0  0
 23  4  1  0  0  0  0
 24  4  1  0  0  0  0
 25 23  1  0  0  0  0
 26 24  1  0  0  0  0
  5  6  2  0  0  0  0
 21 17  2  0  0  0  0
 12  9  2  0  0  0  0
 25 11  1  0  0  0  0
M  END
> <#>
591

> <PLATE>
LAT008

> <ROW>
G

> <COL>
5

> <COORD>
G05

> <LATID>
LAT008G05

> <Supplier>
Chembridge

> <Suplier_CAT#>
5470793

> <Name>
Novel

> <Sec_Name>
135_E03

> <Concentration_(mM)>
2.5

> <IC50_(µM)>
60

> <Yeast_Active?>
-

> <Pubchem_CID>
1101607

$$$$
