
  -ISIS-  08130814242D

 13 13  0  0  0  0  0  0  0  0999 V2000
    3.1750   -2.1500    0.0000 C   0  0  0  0  0  0  0  0  0  0  0  0
    2.7667   -2.8625    0.0000 N   0  3  0  0  0  0  0  0  0  0  0  0
    2.7542   -0.0167    0.0000 N   0  3  0  0  0  0  0  0  0  0  0  0
    2.7667   -1.4417    0.0000 C   0  0  0  0  0  0  0  0  0  0  0  0
    3.1750   -0.7292    0.0000 C   0  0  0  0  0  0  0  0  0  0  0  0
    4.0000   -2.1500    0.0000 C   0  0  0  0  0  0  0  0  0  0  0  0
    3.1792   -3.5792    0.0000 O   0  5  0  0  0  0  0  0  0  0  0  0
    3.1667    0.7000    0.0000 O   0  5  0  0  0  0  0  0  0  0  0  0
    1.9417   -2.8625    0.0000 O   0  0  0  0  0  0  0  0  0  0  0  0
    1.9292   -0.0167    0.0000 O   0  0  0  0  0  0  0  0  0  0  0  0
    4.0000   -0.7250    0.0000 C   0  0  0  0  0  0  0  0  0  0  0  0
    4.4125   -1.4375    0.0000 C   0  0  0  0  0  0  0  0  0  0  0  0
    4.4125   -2.8667    0.0000 O   0  0  0  0  0  0  0  0  0  0  0  0
  2  1  1  0  0  0  0
  3  5  1  0  0  0  0
  4  1  1  0  0  0  0
  5  4  2  0  0  0  0
  6  1  2  0  0  0  0
  7  2  1  0  0  0  0
  8  3  1  0  0  0  0
  9  2  2  0  0  0  0
 10  3  2  0  0  0  0
 11 12  2  0  0  0  0
 12  6  1  0  0  0  0
 13  6  1  0  0  0  0
  5 11  1  0  0  0  0
M  CHG  4   2   1   3   1   7  -1   8  -1
M  END
> <#>
173

> <PLATE>
LAT003

> <ROW>
E

> <COL>
3

> <COORD>
E03

> <LATID>
LAT003E03

> <Supplier>
Microsource

> <Suplier_CAT#>
00330008

> <Name>
2,4-Dinitrophenol

> <Concentration_(mM)>
2.5

> <IC50_(µM)>
2.6

> <Yeast_Active?>
-

> <Pubchem_CID>
1493

> <Description>
Uncouples Oxidative Phosphorylation

$$$$
