
  -ISIS-  08130814242D

 26 28  0  0  0  0  0  0  0  0999 V2000
    3.4167    5.2167    0.0000 N   0  3  0  0  0  0  0  0  0  0  0  0
   -1.0125    2.7833    0.0000 C   0  0  0  0  0  0  0  0  0  0  0  0
    1.9042    2.8125    0.0000 C   0  0  0  0  0  0  0  0  0  0  0  0
   -7.0167    2.7833    0.0000 N   0  0  0  0  0  0  0  0  0  0  0  0
   -2.5125    5.3667    0.0000 C   0  0  0  0  0  0  0  0  0  0  0  0
   -9.9542    2.8458    0.0000 C   0  0  0  0  0  0  0  0  0  0  0  0
   -5.5208    5.3667    0.0000 N   0  0  0  0  0  0  0  0  0  0  0  0
    6.2667    5.0667    0.0000 O   0  5  0  0  0  0  0  0  0  0  0  0
  -11.4792    0.3125    0.0000 C   0  0  0  0  0  0  0  0  0  0  0  0
    2.0542    7.7375    0.0000 O   0  0  0  0  0  0  0  0  0  0  0  0
   -1.0125    7.9542    0.0000 O   0  0  0  0  0  0  0  0  0  0  0  0
  -16.0000   -2.2000    0.0000 N   0  0  0  0  0  0  0  0  0  0  0  0
  -11.3667    5.4375    0.0000 C   0  0  0  0  0  0  0  0  0  0  0  0
   -2.4458    0.4125    0.0000 C   0  0  0  0  0  0  0  0  0  0  0  0
  -14.4417    0.3125    0.0000 C   0  0  0  0  0  0  0  0  0  0  0  0
    3.2667    0.3708    0.0000 C   0  0  0  0  0  0  0  0  0  0  0  0
  -10.0875   -2.3042    0.0000 C   0  0  0  0  0  0  0  0  0  0  0  0
  -14.5792   -4.8542    0.0000 C   0  0  0  0  0  0  0  0  0  0  0  0
   -9.8667    8.0042    0.0000 C   0  0  0  0  0  0  0  0  0  0  0  0
  -14.3375    5.5000    0.0000 C   0  0  0  0  0  0  0  0  0  0  0  0
   -0.9458   -2.1375    0.0000 C   0  0  0  0  0  0  0  0  0  0  0  0
  -11.5875   -4.8542    0.0000 C   0  0  0  0  0  0  0  0  0  0  0  0
    1.7542   -2.1000    0.0000 C   0  0  0  0  0  0  0  0  0  0  0  0
  -11.3042   10.6000    0.0000 C   0  0  0  0  0  0  0  0  0  0  0  0
  -15.7792    8.0917    0.0000 C   0  0  0  0  0  0  0  0  0  0  0  0
  -14.2667   10.6667    0.0000 C   0  0  0  0  0  0  0  0  0  0  0  0
  2  3  1  0  0  0  0
  3  1  1  0  0  0  0
  4  7  1  0  0  0  0
  5  2  1  0  0  0  0
  6  4  2  0  0  0  0
  7  5  1  0  0  0  0
  8  1  1  0  0  0  0
  9  6  1  0  0  0  0
 10  1  2  0  0  0  0
 11  5  2  0  0  0  0
 12 15  1  0  0  0  0
 13  6  1  0  0  0  0
 14  2  2  0  0  0  0
 15  9  2  0  0  0  0
 16  3  2  0  0  0  0
 17  9  1  0  0  0  0
 18 22  1  0  0  0  0
 19 13  2  0  0  0  0
 20 13  1  0  0  0  0
 21 23  2  0  0  0  0
 22 17  2  0  0  0  0
 23 16  1  0  0  0  0
 24 19  1  0  0  0  0
 25 20  2  0  0  0  0
 26 25  1  0  0  0  0
 14 21  1  0  0  0  0
 26 24  2  0  0  0  0
 18 12  2  0  0  0  0
M  CHG  2   1   1   8  -1
M  END
> <#>
1663

> <PLATE>
LAT021

> <ROW>
G

> <COL>
9

> <COORD>
G09

> <LATID>
LAT021G09

> <Supplier>
Chembridge

> <Suplier_CAT#>
5693831

> <Name>
Novel

> <Concentration_(mM)>
2.5

> <IC50_(µM)>
inactive

> <Yeast_Active?>
-

> <Pubchem_CID>
868306

$$$$
