
  -ISIS-  08130814242D

 24 25  0  0  0  0  0  0  0  0999 V2000
    7.0917    2.1208    0.0000 S   0  0  3  0  0  0  0  0  0  0  0  0
    6.4417    1.7458    0.0000 N   0  0  3  0  0  0  0  0  0  0  0  0
    3.8417    3.2458    0.0000 C   0  0  0  0  0  0  0  0  0  0  0  0
    3.1917    2.8708    0.0000 N   0  0  0  0  0  0  0  0  0  0  0  0
    7.6250    1.5875    0.0000 O   0  0  0  0  0  0  0  0  0  0  0  0
    7.6667    2.6000    0.0000 O   0  0  0  0  0  0  0  0  0  0  0  0
    5.7917    2.1208    0.0000 C   0  0  0  0  0  0  0  0  0  0  0  0
    4.4917    2.8708    0.0000 C   0  0  0  0  0  0  0  0  0  0  0  0
    1.2417    3.2458    0.0000 N   0  0  0  0  0  0  0  0  0  0  0  0
    3.8417    3.9958    0.0000 O   0  0  0  0  0  0  0  0  0  0  0  0
    5.1417    1.7458    0.0000 C   0  0  0  0  0  0  0  0  0  0  0  0
    5.7917    2.8708    0.0000 C   0  0  0  0  0  0  0  0  0  0  0  0
    5.1417    3.2458    0.0000 C   0  0  0  0  0  0  0  0  0  0  0  0
    4.4917    2.1208    0.0000 C   0  0  0  0  0  0  0  0  0  0  0  0
    5.7917    0.6208    0.0000 C   0  0  0  0  0  0  0  0  0  0  0  0
    6.6625    2.7333    0.0000 C   0  0  0  0  0  0  0  0  0  0  0  0
    5.7917   -0.1292    0.0000 C   0  0  0  0  0  0  0  0  0  0  0  0
    2.5417    3.2458    0.0000 C   0  0  0  0  0  0  0  0  0  0  0  0
    1.8917    2.8708    0.0000 C   0  0  0  0  0  0  0  0  0  0  0  0
    6.4417    0.9958    0.0000 C   0  0  0  0  0  0  0  0  0  0  0  0
    0.5917    2.8708    0.0000 C   0  0  0  0  0  0  0  0  0  0  0  0
    1.8917    2.1208    0.0000 C   0  0  0  0  0  0  0  0  0  0  0  0
    0.5917    2.1208    0.0000 C   0  0  0  0  0  0  0  0  0  0  0  0
    1.2417    1.7458    0.0000 C   0  0  0  0  0  0  0  0  0  0  0  0
  2  1  1  0  0  0  0
  3  8  1  0  0  0  0
  4  3  1  0  0  0  0
  5  1  2  0  0  0  0
  6  1  2  0  0  0  0
  7  2  1  0  0  0  0
  8 13  1  0  0  0  0
  9 19  1  0  0  0  0
 10  3  2  0  0  0  0
 11  7  2  0  0  0  0
 12  7  1  0  0  0  0
 13 12  2  0  0  0  0
 14 11  1  0  0  0  0
 15 20  1  0  0  0  0
 16  1  1  0  0  0  0
 17 15  2  0  0  0  0
 18  4  1  0  0  0  0
 19 18  1  0  0  0  0
 20  2  1  0  0  0  0
 21  9  2  0  0  0  0
 22 19  2  0  0  0  0
 23 24  2  0  0  0  0
 24 22  1  0  0  0  0
  8 14  2  0  0  0  0
 21 23  1  0  0  0  0
M  END
> <#>
1525

> <PLATE>
LAT020

> <ROW>
E

> <COL>
2

> <COORD>
E02

> <LATID>
LAT020E02

> <Supplier>
Chembridge

> <Suplier_CAT#>
7937828

> <Name>
Novel

> <Concentration_(mM)>
2.5

> <IC50_(µM)>
inactive

> <Yeast_Active?>
-

> <Pubchem_CID>
2969034

$$$$
