
  -ISIS-  08130814242D

 16 17  0  0  0  0  0  0  0  0999 V2000
   -0.6625    1.6208    0.0000 C   0  0  0  0  0  0  0  0  0  0  0  0
   -1.4708    2.0958    0.0000 C   0  0  0  0  0  0  0  0  0  0  0  0
    0.1500    2.0958    0.0000 C   0  0  0  0  0  0  0  0  0  0  0  0
    0.9542    1.6208    0.0000 C   0  0  0  0  0  0  0  0  0  0  0  0
    0.9542    0.6833    0.0000 C   0  0  0  0  0  0  0  0  0  0  0  0
   -0.6625    0.6833    0.0000 C   0  0  0  0  0  0  0  0  0  0  0  0
   -1.4708    3.0208    0.0000 O   0  0  0  0  0  0  0  0  0  0  0  0
   -2.2833    1.6208    0.0000 C   0  0  0  0  0  0  0  0  0  0  0  0
    0.1500    0.2125    0.0000 C   0  0  0  0  0  0  0  0  0  0  0  0
    1.7667    2.0958    0.0000 O   0  0  0  0  0  0  0  0  0  0  0  0
    1.7667    0.2125    0.0000 O   0  0  0  0  0  0  0  0  0  0  0  0
   -2.2833    0.6833    0.0000 C   0  0  0  0  0  0  0  0  0  0  0  0
   -3.0958    2.0958    0.0000 C   0  0  0  0  0  0  0  0  0  0  0  0
   -3.0958    0.2125    0.0000 C   0  0  0  0  0  0  0  0  0  0  0  0
   -3.9000    1.6208    0.0000 C   0  0  0  0  0  0  0  0  0  0  0  0
   -3.9000    0.6833    0.0000 C   0  0  0  0  0  0  0  0  0  0  0  0
  2  1  1  0  0  0  0
  3  1  1  0  0  0  0
  4  3  2  0  0  0  0
  5  9  2  0  0  0  0
  6  1  2  0  0  0  0
  7  2  2  0  0  0  0
  8  2  1  0  0  0  0
  9  6  1  0  0  0  0
 10  4  1  0  0  0  0
 11  5  1  0  0  0  0
 12  8  2  0  0  0  0
 13  8  1  0  0  0  0
 14 12  1  0  0  0  0
 15 13  2  0  0  0  0
 16 15  1  0  0  0  0
  4  5  1  0  0  0  0
 16 14  2  0  0  0  0
M  END
> <#>
1137

> <PLATE>
LAT015

> <ROW>
A

> <COL>
4

> <COORD>
A04

> <LATID>
LAT015A04

> <Supplier>
Chembridge

> <Suplier_CAT#>
5477713

> <Name>
Novel

> <Concentration_(mM)>
2.5

> <IC50_(µM)>
>100

> <Yeast_Active?>
-

> <Pubchem_CID>
165870

$$$$
