
  -ISIS-  08130814242D

 23 24  0  0  0  0  0  0  0  0999 V2000
   13.8292  -15.7250    0.0000 C   0  0  0  0  0  0  0  0  0  0  0  0
    9.2625  -16.3417    0.0000 C   0  0  0  0  0  0  0  0  0  0  0  0
   13.1292  -16.2667    0.0000 C   0  0  0  0  0  0  0  0  0  0  0  0
   14.6542  -16.0625    0.0000 C   0  0  0  0  0  0  0  0  0  0  0  0
    8.5625  -16.8917    0.0000 N   0  0  0  0  0  0  0  0  0  0  0  0
    9.1417  -15.4667    0.0000 N   0  0  0  0  0  0  0  0  0  0  0  0
   12.3042  -15.9250    0.0000 C   0  0  0  0  0  0  0  0  0  0  0  0
   13.7167  -14.8417    0.0000 C   0  0  0  0  0  0  0  0  0  0  0  0
   11.6042  -16.4667    0.0000 C   0  0  0  0  0  0  0  0  0  0  0  0
   10.0792  -16.6792    0.0000 S   0  0  0  0  0  0  0  0  0  0  0  0
    8.3167  -15.1292    0.0000 C   0  0  0  0  0  0  0  0  0  0  0  0
    7.7417  -16.5542    0.0000 C   0  0  0  0  0  0  0  0  0  0  0  0
    7.6250  -15.6792    0.0000 C   0  0  0  0  0  0  0  0  0  0  0  0
   15.3542  -15.5000    0.0000 O   0  0  0  0  0  0  0  0  0  0  0  0
   10.7875  -16.1375    0.0000 C   0  0  0  0  0  0  0  0  0  0  0  0
   12.1875  -15.0500    0.0000 C   0  0  0  0  0  0  0  0  0  0  0  0
   11.7292  -17.3500    0.0000 O   0  0  0  0  0  0  0  0  0  0  0  0
   12.8917  -14.5042    0.0000 C   0  0  0  0  0  0  0  0  0  0  0  0
   14.7625  -16.9292    0.0000 O   0  0  0  0  0  0  0  0  0  0  0  0
   14.4167  -14.3042    0.0000 O   0  0  0  0  0  0  0  0  0  0  0  0
    7.0417  -17.1042    0.0000 C   0  0  0  0  0  0  0  0  0  0  0  0
    8.1917  -14.2542    0.0000 C   0  0  0  0  0  0  0  0  0  0  0  0
   15.5750  -17.2792    0.0000 C   0  0  0  0  0  0  0  0  0  0  0  0
  2 10  1  0  0  0  0
  3  1  1  0  0  0  0
  4  1  1  0  0  0  0
  5  2  2  0  0  0  0
  6  2  1  0  0  0  0
  7  3  2  0  0  0  0
  8  1  2  0  0  0  0
  9  7  1  0  0  0  0
 10 15  1  0  0  0  0
 11  6  2  0  0  0  0
 12  5  1  0  0  0  0
 13 11  1  0  0  0  0
 14  4  2  0  0  0  0
 15  9  1  0  0  0  0
 16 18  2  0  0  0  0
 17  9  2  0  0  0  0
 18  8  1  0  0  0  0
 19  4  1  0  0  0  0
 20  8  1  0  0  0  0
 21 12  1  0  0  0  0
 22 11  1  0  0  0  0
 23 19  1  0  0  0  0
  7 16  1  0  0  0  0
 13 12  2  0  0  0  0
M  END
> <#>
1197

> <PLATE>
LAT015

> <ROW>
E

> <COL>
11

> <COORD>
E11

> <LATID>
LAT015E11

> <Supplier>
Chembridge

> <Suplier_CAT#>
5807019

> <Name>
Novel

> <Concentration_(mM)>
2.5

> <IC50_(µM)>
inactive

> <Yeast_Active?>
-

> <Pubchem_CID>
694598

$$$$
