
  -ISIS-  08130814242D

 17 19  0  0  0  0  0  0  0  0999 V2000
   -2.6000   -1.2375    0.0000 N   0  0  0  0  0  0  0  0  0  0  0  0
   -1.8333   -1.7875    0.0000 C   0  0  0  0  0  0  0  0  0  0  0  0
   -1.3958   -0.3375    0.0000 C   0  0  0  0  0  0  0  0  0  0  0  0
   -2.3125   -0.3292    0.0000 C   0  0  0  0  0  0  0  0  0  0  0  0
    0.0292    0.4125    0.0000 C   0  0  0  0  0  0  0  0  0  0  0  0
   -1.0833   -1.1875    0.0000 N   0  0  0  0  0  0  0  0  0  0  0  0
   -0.8833    0.4125    0.0000 C   0  0  0  0  0  0  0  0  0  0  0  0
    0.5500   -0.3292    0.0000 N   0  0  0  0  0  0  0  0  0  0  0  0
    0.5500    1.1500    0.0000 C   0  0  0  0  0  0  0  0  0  0  0  0
    1.4375   -0.0542    0.0000 C   0  0  0  0  0  0  0  0  0  0  0  0
    1.4375    0.8625    0.0000 C   0  0  0  0  0  0  0  0  0  0  0  0
   -1.8208   -2.7042    0.0000 S   0  0  0  0  0  0  0  0  0  0  0  0
   -2.8333    0.4125    0.0000 O   0  0  0  0  0  0  0  0  0  0  0  0
    2.2500   -0.5042    0.0000 C   0  0  0  0  0  0  0  0  0  0  0  0
    2.2500    1.3333    0.0000 C   0  0  0  0  0  0  0  0  0  0  0  0
    3.0500    0.8625    0.0000 C   0  0  0  0  0  0  0  0  0  0  0  0
    3.0500   -0.0542    0.0000 C   0  0  0  0  0  0  0  0  0  0  0  0
  2  1  1  0  0  0  0
  3  4  1  0  0  0  0
  4  1  1  0  0  0  0
  5  7  1  0  0  0  0
  6  2  1  0  0  0  0
  7  3  2  0  0  0  0
  8  5  1  0  0  0  0
  9  5  2  0  0  0  0
 10  8  1  0  0  0  0
 11  9  1  0  0  0  0
 12  2  2  0  0  0  0
 13  4  2  0  0  0  0
 14 10  1  0  0  0  0
 15 11  1  0  0  0  0
 16 15  2  0  0  0  0
 17 14  2  0  0  0  0
  3  6  1  0  0  0  0
 10 11  2  0  0  0  0
 17 16  1  0  0  0  0
M  END
> <#>
2054

> <PLATE>
LAT026

> <ROW>
F

> <COL>
8

> <COORD>
F08

> <LATID>
LAT026F08

> <Supplier>
Chembridge

> <Suplier_CAT#>
5587105

> <Sec_Name>
184_G03

> <Concentration_(mM)>
2.5

> <IC50_(µM)>
58

> <Yeast_Active?>
-

> <Pubchem_CID>
NULL

$$$$
