
  -ISIS-  08130814242D

 14 14  0  0  0  0  0  0  0  0999 V2000
   -0.7333   -2.1042    0.0000 N   0  0  0  0  0  0  0  0  0  0  0  0
   -2.2125   -1.2500    0.0000 C   0  0  0  0  0  0  0  0  0  0  0  0
   -3.6125    1.3333    0.0000 C   0  0  0  0  0  0  0  0  0  0  0  0
   -0.6708    1.2708    0.0000 N   0  0  0  0  0  0  0  0  0  0  0  0
   -3.6500   -0.3875    0.0000 C   0  0  0  0  0  0  0  0  0  0  0  0
   -2.1125    2.1500    0.0000 N   0  0  0  0  0  0  0  0  0  0  0  0
    3.7500   -1.3667    0.0000 N   0  0  0  0  0  0  0  0  0  0  0  0
   -5.0708    2.1958    0.0000 O   0  0  0  0  0  0  0  0  0  0  0  0
    0.8292    2.0958    0.0000 C   0  0  0  0  0  0  0  0  0  0  0  0
    2.2875    1.2125    0.0000 C   0  0  0  0  0  0  0  0  0  0  0  0
    2.2875   -0.5042    0.0000 C   0  0  0  0  0  0  0  0  0  0  0  0
    5.2042   -0.5292    0.0000 C   0  0  0  0  0  0  0  0  0  0  0  0
    3.7667    2.0333    0.0000 C   0  0  0  0  0  0  0  0  0  0  0  0
    5.2292    1.1958    0.0000 C   0  0  0  0  0  0  0  0  0  0  0  0
  2  1  3  0  0  0  0
  3  5  1  0  0  0  0
  4  6  1  0  0  0  0
  5  2  1  0  0  0  0
  6  3  1  0  0  0  0
  7 11  2  0  0  0  0
  8  3  2  0  0  0  0
  9  4  2  0  0  0  0
 10  9  1  0  0  0  0
 11 10  1  0  0  0  0
 12 14  2  0  0  0  0
 13 10  2  0  0  0  0
 14 13  1  0  0  0  0
  7 12  1  0  0  0  0
M  END
> <#>
1665

> <PLATE>
LAT021

> <ROW>
A

> <COL>
10

> <COORD>
A10

> <LATID>
LAT021A10

> <Supplier>
Chembridge

> <Suplier_CAT#>
5511491

> <Name>
Novel

> <Concentration_(mM)>
2.5

> <IC50_(µM)>
inactive

> <Yeast_Active?>
-

> <Pubchem_CID>
772208

$$$$
