
  -ISIS-  08130814242D

 31 34  0  0  0  0  0  0  0  0999 V2000
    3.8042    3.1708    0.0000 C   0  0  0  0  0  0  0  0  0  0  0  0
    4.5250    3.4000    0.0000 C   0  0  0  0  0  0  0  0  0  0  0  0
    3.3667    3.7750    0.0000 N   0  0  3  0  0  0  0  0  0  0  0  0
    3.8042    4.3750    0.0000 N   0  0  0  0  0  0  0  0  0  0  0  0
    3.5792    2.4583    0.0000 N   0  0  0  0  0  0  0  0  0  0  0  0
    4.5250    4.1417    0.0000 C   0  0  0  0  0  0  0  0  0  0  0  0
    4.1667    1.9958    0.0000 C   0  0  0  0  0  0  0  0  0  0  0  0
    5.1917    3.0708    0.0000 C   0  0  0  0  0  0  0  0  0  0  0  0
    2.6167    3.7750    0.0000 C   0  0  0  0  0  0  0  0  0  0  0  0
    4.0667    1.2500    0.0000 C   0  0  0  0  0  0  0  0  0  0  0  0
    2.2417    4.4167    0.0000 C   0  0  0  0  0  0  0  0  0  0  0  0
    5.8167    3.4875    0.0000 N   0  0  0  0  0  0  0  0  0  0  0  0
    1.4917    4.4167    0.0000 C   0  0  0  0  0  0  0  0  0  0  0  0
    4.6042    0.7333    0.0000 O   0  0  0  0  0  0  0  0  0  0  0  0
    4.8625    2.2708    0.0000 O   0  0  0  0  0  0  0  0  0  0  0  0
    3.4042    0.8958    0.0000 C   0  0  0  0  0  0  0  0  0  0  0  0
    7.7167    3.1458    0.0000 N   0  0  0  0  0  0  0  0  0  0  0  0
    2.2417    3.1250    0.0000 C   0  0  0  0  0  0  0  0  0  0  0  0
    5.2500    2.3208    0.0000 O   0  0  0  0  0  0  0  0  0  0  0  0
    1.1167    3.7750    0.0000 C   0  0  0  0  0  0  0  0  0  0  0  0
    4.2750    0.0583    0.0000 C   0  0  0  0  0  0  0  0  0  0  0  0
    3.5292    0.1583    0.0000 C   0  0  0  0  0  0  0  0  0  0  0  0
    1.4917    3.1250    0.0000 C   0  0  0  0  0  0  0  0  0  0  0  0
    6.4250    3.0500    0.0000 C   0  0  0  0  0  0  0  0  0  0  0  0
    7.0417    3.4708    0.0000 C   0  0  0  0  0  0  0  0  0  0  0  0
    1.1167    5.0667    0.0000 C   0  0  0  0  0  0  0  0  0  0  0  0
    8.3417    3.5583    0.0000 C   0  0  0  0  0  0  0  0  0  0  0  0
    0.3667    3.7750    0.0000 C   0  0  0  0  0  0  0  0  0  0  0  0
    6.9917    4.2125    0.0000 C   0  0  0  0  0  0  0  0  0  0  0  0
    8.2917    4.3042    0.0000 C   0  0  0  0  0  0  0  0  0  0  0  0
    7.6167    4.6292    0.0000 C   0  0  0  0  0  0  0  0  0  0  0  0
  2  1  2  0  0  0  0
  3  1  1  0  0  0  0
  4  3  1  0  0  0  0
  5  1  1  0  0  0  0
  6  2  1  0  0  0  0
  7  5  1  0  0  0  0
  8  2  1  0  0  0  0
  9  3  1  0  0  0  0
 10  7  1  0  0  0  0
 11  9  1  0  0  0  0
 12  8  1  0  0  0  0
 13 11  2  0  0  0  0
 14 10  1  0  0  0  0
 15  7  2  0  0  0  0
 16 10  2  0  0  0  0
 17 25  2  0  0  0  0
 18  9  2  0  0  0  0
 19  8  2  0  0  0  0
 20 23  2  0  0  0  0
 21 14  1  0  0  0  0
 22 16  1  0  0  0  0
 23 18  1  0  0  0  0
 24 12  1  0  0  0  0
 25 24  1  0  0  0  0
 26 13  1  0  0  0  0
 27 17  1  0  0  0  0
 28 20  1  0  0  0  0
 29 25  1  0  0  0  0
 30 31  1  0  0  0  0
 31 29  2  0  0  0  0
  6  4  2  0  0  0  0
 22 21  2  0  0  0  0
 13 20  1  0  0  0  0
 27 30  2  0  0  0  0
M  END
> <#>
1518

> <PLATE>
LAT019

> <ROW>
F

> <COL>
11

> <COORD>
F11

> <LATID>
LAT019F11

> <Supplier>
Chembridge

> <Suplier_CAT#>
7882660

> <Name>
Novel

> <Concentration_(mM)>
2.5

> <IC50_(µM)>
inactive

> <Yeast_Active?>
-

> <Pubchem_CID>
1299889

$$$$
