
  -ISIS-  08130814242D

 21 23  0  0  0  0  0  0  0  0999 V2000
    1.3625    1.5125    0.0000 C   0  0  0  0  0  0  0  0  0  0  0  0
    1.9167    2.0208    0.0000 C   0  0  0  0  0  0  0  0  0  0  0  0
    2.5667    1.6375    0.0000 C   0  0  0  0  0  0  0  0  0  0  0  0
    2.4125    0.9083    0.0000 O   0  0  0  0  0  0  0  0  0  0  0  0
    1.6667    0.8250    0.0000 C   0  0  0  0  0  0  0  0  0  0  0  0
    0.3917    2.3833    0.0000 C   0  0  0  0  0  0  0  0  0  0  0  0
    0.6292    1.6708    0.0000 C   0  0  0  0  0  0  0  0  0  0  0  0
    1.9167    2.7708    0.0000 C   0  0  0  0  0  0  0  0  0  0  0  0
    3.2167    2.0208    0.0000 C   0  0  0  0  0  0  0  0  0  0  0  0
   -0.3375    2.5375    0.0000 N   0  0  0  0  0  0  0  0  0  0  0  0
   -1.5333    4.1042    0.0000 N   0  0  0  0  0  0  0  0  0  0  0  0
    0.8917    2.9375    0.0000 O   0  0  0  0  0  0  0  0  0  0  0  0
   -1.3083    3.4083    0.0000 C   0  0  0  0  0  0  0  0  0  0  0  0
    2.5667    3.1458    0.0000 C   0  0  0  0  0  0  0  0  0  0  0  0
    3.2167    2.7708    0.0000 C   0  0  0  0  0  0  0  0  0  0  0  0
   -0.5708    3.2500    0.0000 C   0  0  0  0  0  0  0  0  0  0  0  0
   -2.2708    4.2667    0.0000 C   0  0  0  0  0  0  0  0  0  0  0  0
    3.8667    3.1458    0.0000 C   0  0  0  0  0  0  0  0  0  0  0  0
   -1.8083    2.8458    0.0000 C   0  0  0  0  0  0  0  0  0  0  0  0
   -2.7708    3.7208    0.0000 C   0  0  0  0  0  0  0  0  0  0  0  0
   -2.5375    3.0083    0.0000 C   0  0  0  0  0  0  0  0  0  0  0  0
  2  1  1  0  0  0  0
  3  2  1  0  0  0  0
  4  5  1  0  0  0  0
  5  1  2  0  0  0  0
  6  7  1  0  0  0  0
  7  1  1  0  0  0  0
  8  2  2  0  0  0  0
  9  3  2  0  0  0  0
 10  6  1  0  0  0  0
 11 13  2  0  0  0  0
 12  6  2  0  0  0  0
 13 16  1  0  0  0  0
 14  8  1  0  0  0  0
 15 14  2  0  0  0  0
 16 10  1  0  0  0  0
 17 11  1  0  0  0  0
 18 15  1  0  0  0  0
 19 13  1  0  0  0  0
 20 21  1  0  0  0  0
 21 19  2  0  0  0  0
  4  3  1  0  0  0  0
 15  9  1  0  0  0  0
 20 17  2  0  0  0  0
M  END
> <#>
1565

> <PLATE>
LAT020

> <ROW>
E

> <COL>
7

> <COORD>
E07

> <LATID>
LAT020E07

> <Supplier>
Chembridge

> <Suplier_CAT#>
9028434

> <Name>
Novel

> <Concentration_(mM)>
2.5

> <IC50_(µM)>
70

> <Yeast_Active?>
-

> <Pubchem_CID>
6460831

$$$$
