
  -ISIS-  08130814242D

 28 30  0  0  0  0  0  0  0  0999 V2000
   -4.7500    1.8125    0.0000 N   0  3  0  0  0  0  0  0  0  0  0  0
   -1.2958    0.8125    0.0000 N   0  0  3  0  0  0  0  0  0  0  0  0
   -1.5708    1.3125    0.0000 C   0  0  0  0  0  0  0  0  0  0  0  0
   -2.1500    1.3125    0.0000 C   0  0  0  0  0  0  0  0  0  0  0  0
   -4.1708    1.8125    0.0000 C   0  0  0  0  0  0  0  0  0  0  0  0
   -5.0333    2.3125    0.0000 O   0  5  0  0  0  0  0  0  0  0  0  0
   -2.4333    1.8125    0.0000 C   0  0  0  0  0  0  0  0  0  0  0  0
   -5.0333    1.3125    0.0000 O   0  0  0  0  0  0  0  0  0  0  0  0
   -0.7208    0.8125    0.0000 C   0  0  0  0  0  0  0  0  0  0  0  0
   -1.5833    0.3125    0.0000 C   0  0  0  0  0  0  0  0  0  0  0  0
   -1.2958    1.8125    0.0000 O   0  0  0  0  0  0  0  0  0  0  0  0
   -3.8708    1.3125    0.0000 C   0  0  0  0  0  0  0  0  0  0  0  0
   -3.8708    2.3125    0.0000 C   0  0  0  0  0  0  0  0  0  0  0  0
   -3.0125    1.8125    0.0000 C   0  0  0  0  0  0  0  0  0  0  0  0
   -0.4458    0.3333    0.0000 C   0  0  0  0  0  0  0  0  0  0  0  0
   -2.1500    0.3125    0.0000 C   0  0  0  0  0  0  0  0  0  0  0  0
   -3.3125    2.3125    0.0000 C   0  0  0  0  0  0  0  0  0  0  0  0
   -3.3125    1.3125    0.0000 C   0  0  0  0  0  0  0  0  0  0  0  0
   -0.7208   -0.1875    0.0000 C   0  0  0  0  0  0  0  0  0  0  0  0
    0.1292    0.3125    0.0000 C   0  0  0  0  0  0  0  0  0  0  0  0
   -2.4625    0.8125    0.0000 C   0  0  0  0  0  0  0  0  0  0  0  0
   -2.4500   -0.1792    0.0000 C   0  0  0  0  0  0  0  0  0  0  0  0
    0.4292   -0.1792    0.0000 C   0  0  0  0  0  0  0  0  0  0  0  0
   -3.0458    0.8125    0.0000 C   0  0  0  0  0  0  0  0  0  0  0  0
   -3.0333   -0.2000    0.0000 C   0  0  0  0  0  0  0  0  0  0  0  0
   -0.4333   -0.6875    0.0000 C   0  0  0  0  0  0  0  0  0  0  0  0
    0.1500   -0.6875    0.0000 C   0  0  0  0  0  0  0  0  0  0  0  0
   -3.3458    0.3125    0.0000 C   0  0  0  0  0  0  0  0  0  0  0  0
  2  3  1  0  0  0  0
  3  4  1  0  0  0  0
  4  7  2  0  0  0  0
  5  1  1  0  0  0  0
  6  1  1  0  0  0  0
  7 14  1  0  0  0  0
  8  1  2  0  0  0  0
  9  2  1  0  0  0  0
 10  2  1  0  0  0  0
 11  3  2  0  0  0  0
 12  5  1  0  0  0  0
 13  5  2  0  0  0  0
 14 17  2  0  0  0  0
 15  9  1  0  0  0  0
 16 10  1  0  0  0  0
 17 13  1  0  0  0  0
 18 12  2  0  0  0  0
 19 15  2  0  0  0  0
 20 15  1  0  0  0  0
 21 16  2  0  0  0  0
 22 16  1  0  0  0  0
 23 20  2  0  0  0  0
 24 21  1  0  0  0  0
 25 22  2  0  0  0  0
 26 19  1  0  0  0  0
 27 23  1  0  0  0  0
 28 25  1  0  0  0  0
 14 18  1  0  0  0  0
 28 24  2  0  0  0  0
 27 26  2  0  0  0  0
M  CHG  2   1   1   6  -1
M  END
> <#>
797

> <PLATE>
LAT010

> <ROW>
E

> <COL>
11

> <COORD>
E11

> <LATID>
LAT010E11

> <Supplier>
Chembridge

> <Suplier_CAT#>
5572357

> <Name>
Novel

> <Sec_Name>
175_G09

> <Concentration_(mM)>
2.5

> <IC50_(µM)>
>100

> <Yeast_Active?>
-

> <Pubchem_CID>
1369940

$$$$
