
  -ISIS-  08130814242D

 15 16  0  0  0  0  0  0  0  0999 V2000
    2.9542   -1.9167    0.0000 C   0  0  0  0  0  0  0  0  0  0  0  0
    3.6667   -2.3292    0.0000 C   0  0  0  0  0  0  0  0  0  0  0  0
    2.9542   -1.0917    0.0000 C   0  0  0  0  0  0  0  0  0  0  0  0
    2.2417   -2.3292    0.0000 C   0  0  0  0  0  0  0  0  0  0  0  0
    3.6667   -0.6792    0.0000 O   0  0  0  0  0  0  0  0  0  0  0  0
    4.3875   -1.9167    0.0000 C   0  0  0  0  0  0  0  0  0  0  0  0
    4.3875   -1.0917    0.0000 C   0  0  3  0  0  0  0  0  0  0  0  0
    2.2417   -0.6792    0.0000 C   0  0  0  0  0  0  0  0  0  0  0  0
    1.5292   -1.9167    0.0000 C   0  0  0  0  0  0  0  0  0  0  0  0
    1.5292   -1.0917    0.0000 C   0  0  0  0  0  0  0  0  0  0  0  0
    3.6667   -3.1542    0.0000 O   0  0  0  0  0  0  0  0  0  0  0  0
    2.2417   -3.1542    0.0000 O   0  0  0  0  0  0  0  0  0  0  0  0
    0.8042   -0.6792    0.0000 O   0  0  0  0  0  0  0  0  0  0  0  0
    4.8042   -0.3667    0.0000 C   0  0  0  0  0  0  0  0  0  0  0  0
    5.1875   -1.3042    0.0000 C   0  0  0  0  0  0  0  0  0  0  0  0
  2  1  1  0  0  0  0
  3  1  1  0  0  0  0
  4  1  2  0  0  0  0
  5  3  1  0  0  0  0
  6  2  1  0  0  0  0
  7  5  1  0  0  0  0
  8  3  2  0  0  0  0
  9  4  1  0  0  0  0
 10  9  2  0  0  0  0
 11  2  2  0  0  0  0
 12  4  1  0  0  0  0
 13 10  1  0  0  0  0
 14  7  1  0  0  0  0
 15  7  1  0  0  0  0
 10  8  1  0  0  0  0
  7  6  1  0  0  0  0
M  END
> <#>
1391

> <PLATE>
LAT018

> <ROW>
G

> <COL>
5

> <COORD>
G05

> <LATID>
LAT018G05

> <Supplier>
Chembridge

> <Suplier_CAT#>
7836609

> <Name>
Novel

> <Concentration_(mM)>
2.5

> <IC50_(µM)>
inactive

> <Yeast_Active?>
-

> <Pubchem_CID>
NULL

$$$$
