
  -ISIS-  08130814242D

 29 33  0  0  0  0  0  0  0  0999 V2000
    6.7625   -8.0792    0.0000 C   0  0  0  0  0  0  0  0  0  0  0  0
    6.0500   -9.3167    0.0000 C   0  0  0  0  0  0  0  0  0  0  0  0
    5.3292   -8.9042    0.0000 C   0  0  1  0  0  0  0  0  0  0  0  0
    6.7625   -8.9042    0.0000 C   0  0  0  0  0  0  0  0  0  0  0  0
    7.4750   -7.6667    0.0000 C   0  0  0  0  0  0  0  0  0  0  0  0
    4.6167   -9.3167    0.0000 C   0  0  0  0  0  0  0  0  0  0  0  0
    6.0500   -7.6667    0.0000 O   0  0  0  0  0  0  0  0  0  0  0  0
    5.3292   -8.0792    0.0000 C   0  0  2  0  0  0  0  0  0  0  0  0
    3.9042   -8.9042    0.0000 C   0  0  0  0  0  0  0  0  0  0  0  0
    8.8042   -7.5250    0.0000 O   0  0  0  0  0  0  0  0  0  0  0  0
    8.1917   -8.0792    0.0000 C   0  0  0  0  0  0  0  0  0  0  0  0
    7.6500   -6.8625    0.0000 C   0  0  0  0  0  0  0  0  0  0  0  0
    8.4667   -6.7792    0.0000 C   0  0  2  0  0  0  0  0  0  0  0  0
    4.6167  -10.1500    0.0000 C   0  0  0  0  0  0  0  0  0  0  0  0
    3.9042   -8.0792    0.0000 O   0  0  0  0  0  0  0  0  0  0  0  0
    3.1875   -9.3167    0.0000 C   0  0  0  0  0  0  0  0  0  0  0  0
    7.4750   -9.3167    0.0000 C   0  0  0  0  0  0  0  0  0  0  0  0
    3.9042  -10.5625    0.0000 C   0  0  0  0  0  0  0  0  0  0  0  0
    3.1875  -10.1500    0.0000 C   0  0  0  0  0  0  0  0  0  0  0  0
    8.8792   -6.0500    0.0000 C   0  0  0  0  0  0  0  0  0  0  0  0
    4.6167   -7.6667    0.0000 C   0  0  0  0  0  0  0  0  0  0  0  0
    6.0500  -10.1417    0.0000 O   0  0  0  0  0  0  0  0  0  0  0  0
    8.1917   -8.9042    0.0000 C   0  0  0  0  0  0  0  0  0  0  0  0
    9.7042   -6.0375    0.0000 C   0  0  0  0  0  0  0  0  0  0  0  0
    3.9167  -11.3875    0.0000 O   0  0  0  0  0  0  0  0  0  0  0  0
    2.4625  -10.5667    0.0000 O   0  0  0  0  0  0  0  0  0  0  0  0
    8.4625   -5.3417    0.0000 C   0  0  0  0  0  0  0  0  0  0  0  0
    1.7417  -10.1500    0.0000 C   0  0  0  0  0  0  0  0  0  0  0  0
    4.6292  -11.7917    0.0000 C   0  0  0  0  0  0  0  0  0  0  0  0
  2  4  1  0  0  0  0
  3  8  1  0  0  0  0
  4  1  2  0  0  0  0
  5  1  1  0  0  0  0
  6  3  1  0  0  0  0
  7  1  1  0  0  0  0
  8  7  1  0  0  0  0
  9 15  1  0  0  0  0
 10 11  1  0  0  0  0
 11  5  2  0  0  0  0
 12  5  1  0  0  0  0
 13 12  1  0  0  0  0
 14  6  2  0  0  0  0
 15 21  1  0  0  0  0
 16  9  2  0  0  0  0
 17  4  1  0  0  0  0
 18 14  1  0  0  0  0
 19 16  1  0  0  0  0
 13 20  1  6  0  0  0
  8 21  1  1  0  0  0
 22  2  2  0  0  0  0
 23 11  1  0  0  0  0
 24 20  2  0  0  0  0
 25 18  1  0  0  0  0
 26 19  1  0  0  0  0
 27 20  1  0  0  0  0
 28 26  1  0  0  0  0
 29 25  1  0  0  0  0
  3  2  1  1  0  0  0
 10 13  1  0  0  0  0
 17 23  2  0  0  0  0
  9  6  1  0  0  0  0
 19 18  2  0  0  0  0
M  END
> <#>
21

> <PLATE>
LAT001

> <ROW>
E

> <COL>
4

> <COORD>
E04

> <LATID>
LAT001E04

> <Supplier>
Microsource

> <Suplier_CAT#>
00200013

> <Name>
Rotenone

> <Concentration_(mM)>
2.5

> <IC50_(µM)>
27

> <Yeast_Active?>
-

> <Pubchem_CID>
5102

> <Description>
Acaricide, Ectoparasiticide, Antineoplastic, Mitochondrial Poison

> <Source>
Natural Product; ex Derris spp

$$$$
