
  -ISIS-  08130814242D

 26 29  0  0  0  0  0  0  0  0999 V2000
   -2.4208   -0.5167    0.0000 N   0  0  0  0  0  0  0  0  0  0  0  0
   -1.0958   -0.5167    0.0000 C   0  0  0  0  0  0  0  0  0  0  0  0
   -2.1625   -1.3167    0.0000 N   0  0  3  0  0  0  0  0  0  0  0  0
   -1.7500   -0.0542    0.0000 C   0  0  0  0  0  0  0  0  0  0  0  0
   -1.3458   -1.3167    0.0000 C   0  0  0  0  0  0  0  0  0  0  0  0
   -0.0500   -0.2542    0.0000 C   0  0  0  0  0  0  0  0  0  0  0  0
    0.6000   -1.0000    0.0000 N   0  0  0  0  0  0  0  0  0  0  0  0
   -1.7500    0.8125    0.0000 C   0  0  0  0  0  0  0  0  0  0  0  0
   -2.6708   -2.0375    0.0000 C   0  0  0  0  0  0  0  0  0  0  0  0
   -2.5125    1.2500    0.0000 C   0  0  0  0  0  0  0  0  0  0  0  0
   -0.9958    1.2500    0.0000 C   0  0  0  0  0  0  0  0  0  0  0  0
    1.4542   -0.8292    0.0000 C   0  0  0  0  0  0  0  0  0  0  0  0
   -1.7500    2.5708    0.0000 C   0  0  0  0  0  0  0  0  0  0  0  0
   -0.9833    2.1458    0.0000 C   0  0  0  0  0  0  0  0  0  0  0  0
   -2.5125    2.1458    0.0000 C   0  0  0  0  0  0  0  0  0  0  0  0
   -1.7625    3.4458    0.0000 F   0  0  0  0  0  0  0  0  0  0  0  0
   -3.5500   -1.9542    0.0000 C   0  0  0  0  0  0  0  0  0  0  0  0
   -2.2958   -2.8375    0.0000 C   0  0  0  0  0  0  0  0  0  0  0  0
    2.0500   -1.5000    0.0000 C   0  0  0  0  0  0  0  0  0  0  0  0
    1.7375    0.0125    0.0000 C   0  0  0  0  0  0  0  0  0  0  0  0
   -4.0708   -2.6792    0.0000 C   0  0  0  0  0  0  0  0  0  0  0  0
   -2.8000   -3.5667    0.0000 C   0  0  0  0  0  0  0  0  0  0  0  0
    2.6167    0.1958    0.0000 C   0  0  0  0  0  0  0  0  0  0  0  0
    2.9167   -1.3292    0.0000 C   0  0  0  0  0  0  0  0  0  0  0  0
   -3.6958   -3.4875    0.0000 C   0  0  0  0  0  0  0  0  0  0  0  0
    3.2042   -0.4875    0.0000 C   0  0  0  0  0  0  0  0  0  0  0  0
  2  4  1  0  0  0  0
  3  1  1  0  0  0  0
  4  1  2  0  0  0  0
  5  3  1  0  0  0  0
  6  2  1  0  0  0  0
  7  6  2  0  0  0  0
  8  4  1  0  0  0  0
  9  3  1  0  0  0  0
 10  8  1  0  0  0  0
 11  8  2  0  0  0  0
 12  7  1  0  0  0  0
 13 14  2  0  0  0  0
 14 11  1  0  0  0  0
 15 10  2  0  0  0  0
 16 13  1  0  0  0  0
 17  9  2  0  0  0  0
 18  9  1  0  0  0  0
 19 12  2  0  0  0  0
 20 12  1  0  0  0  0
 21 17  1  0  0  0  0
 22 18  2  0  0  0  0
 23 20  2  0  0  0  0
 24 19  1  0  0  0  0
 25 22  1  0  0  0  0
 26 23  1  0  0  0  0
  5  2  2  0  0  0  0
 13 15  1  0  0  0  0
 25 21  2  0  0  0  0
 24 26  2  0  0  0  0
M  END
> <#>
1108

> <PLATE>
LAT014

> <ROW>
D

> <COL>
10

> <COORD>
D10

> <LATID>
LAT014D10

> <Supplier>
Chembridge

> <Suplier_CAT#>
5236276

> <Name>
Novel

> <Concentration_(mM)>
2.5

> <IC50_(µM)>
inactive

> <Yeast_Active?>
-

> <Pubchem_CID>
789824

$$$$
