
  -ISIS-  08130814242D

  9  8  0  0  0  0  0  0  0  0999 V2000
    0.7250   -1.6042    0.0000 C   0  0  0  0  0  0  0  0  0  0  0  0
   -0.2875   -1.2500    0.0000 C   0  0  0  0  0  0  0  0  0  0  0  0
    4.8000   -1.3042    0.0000 C   0  0  0  0  0  0  0  0  0  0  0  0
    5.1667   -0.1792    0.0000 O   0  0  0  0  0  0  0  0  0  0  0  0
    3.6417   -1.5542    0.0000 C   0  0  0  0  0  0  0  0  0  0  0  0
    1.7250   -1.6042    0.0000 C   0  0  3  0  0  0  0  0  0  0  0  0
    5.6000   -2.1792    0.0000 O   0  0  0  0  0  0  0  0  0  0  0  0
    1.7250   -2.5167    0.0000 N   0  0  0  0  0  0  0  0  0  0  0  0
    2.8000   -1.2792    0.0000 C   0  0  0  0  0  0  0  0  0  0  0  0
  2  1  3  0  0  0  0
  3  5  1  0  0  0  0
  4  3  2  0  0  0  0
  5  9  1  0  0  0  0
  6  1  1  0  0  0  0
  7  3  1  0  0  0  0
  8  6  1  0  0  0  0
  9  6  1  0  0  0  0
M  END
> <#>
201

> <PLATE>
LAT003

> <ROW>
A

> <COL>
7

> <COORD>
A07

> <LATID>
LAT003A07

> <Supplier>
Sigma

> <Suplier_CAT#>
A-230

> <Name>
Gamma-Acetylinic Gaba

> <Concentration_(mM)>
2.5

> <IC50_(µM)>
>100

> <Yeast_Active?>
-

> <Pubchem_CID>
3452

> <Description>
GABA transaminase (GABA-T) inhibitor

$$$$
