
  -ISIS-  08130814242D

 22 24  0  0  0  0  0  0  0  0999 V2000
    5.6917   -3.2792    0.0000 S   0  0  3  0  0  0  0  0  0  0  0  0
    4.5792   -2.3875    0.0000 C   0  0  0  0  0  0  0  0  0  0  0  0
    4.8792   -3.1542    0.0000 N   0  0  0  0  0  0  0  0  0  0  0  0
    3.7792   -2.1667    0.0000 N   0  0  3  0  0  0  0  0  0  0  0  0
    5.0292   -1.7000    0.0000 C   0  0  0  0  0  0  0  0  0  0  0  0
    3.7417   -1.3500    0.0000 N   0  0  0  0  0  0  0  0  0  0  0  0
    6.5125   -3.4042    0.0000 C   0  0  0  0  0  0  0  0  0  0  0  0
    5.5667   -4.1000    0.0000 O   0  0  0  0  0  0  0  0  0  0  0  0
    5.8167   -2.4667    0.0000 O   0  0  0  0  0  0  0  0  0  0  0  0
    4.5125   -1.0542    0.0000 C   0  0  0  0  0  0  0  0  0  0  0  0
    3.1125   -2.6542    0.0000 C   0  0  0  0  0  0  0  0  0  0  0  0
    7.0292   -2.7625    0.0000 C   0  0  0  0  0  0  0  0  0  0  0  0
    6.8167   -4.1750    0.0000 C   0  0  0  0  0  0  0  0  0  0  0  0
    8.1417   -3.6500    0.0000 C   0  0  0  0  0  0  0  0  0  0  0  0
    8.9667   -3.7667    0.0000 N   0  0  0  0  0  0  0  0  0  0  0  0
    7.8417   -2.8875    0.0000 C   0  0  0  0  0  0  0  0  0  0  0  0
    7.6292   -4.2917    0.0000 C   0  0  0  0  0  0  0  0  0  0  0  0
    3.2000   -3.4792    0.0000 C   0  0  0  0  0  0  0  0  0  0  0  0
    2.3625   -2.3250    0.0000 C   0  0  0  0  0  0  0  0  0  0  0  0
    2.5292   -3.9667    0.0000 C   0  0  0  0  0  0  0  0  0  0  0  0
    1.6917   -2.8125    0.0000 C   0  0  0  0  0  0  0  0  0  0  0  0
    1.7792   -3.6292    0.0000 C   0  0  0  0  0  0  0  0  0  0  0  0
  2  3  1  0  0  0  0
  3  1  1  0  0  0  0
  4  2  1  0  0  0  0
  5  2  2  0  0  0  0
  6  4  1  0  0  0  0
  7  1  1  0  0  0  0
  8  1  2  0  0  0  0
  9  1  2  0  0  0  0
 10  5  1  0  0  0  0
 11  4  1  0  0  0  0
 12  7  1  0  0  0  0
 13  7  2  0  0  0  0
 14 17  2  0  0  0  0
 15 14  1  0  0  0  0
 16 12  2  0  0  0  0
 17 13  1  0  0  0  0
 18 11  1  0  0  0  0
 19 11  2  0  0  0  0
 20 18  2  0  0  0  0
 21 19  1  0  0  0  0
 22 21  2  0  0  0  0
 14 16  1  0  0  0  0
  6 10  2  0  0  0  0
 22 20  1  0  0  0  0
M  END
> <#>
90

> <PLATE>
LAT002

> <ROW>
B

> <COL>
3

> <COORD>
B03

> <LATID>
LAT002B03

> <Supplier>
Microsource

> <Suplier_CAT#>
01501143

> <Name>
Sulfaphenazole

> <Concentration_(mM)>
2.5

> <IC50_(µM)>
5.5

> <Yeast_Active?>
-

> <Pubchem_CID>
5335

> <Description>
Antibacterial

$$$$
