
  -ISIS-  08130814242D

 31 34  0  0  0  0  0  0  0  0999 V2000
   -3.2208    5.6542    0.0000 N   0  0  3  0  0  0  0  0  0  0  0  0
   -5.6958    4.2042    0.0000 C   0  0  0  0  0  0  0  0  0  0  0  0
   -5.0958    1.5000    0.0000 N   0  0  0  0  0  0  0  0  0  0  0  0
   -1.1125    3.7708    0.0000 C   0  0  0  0  0  0  0  0  0  0  0  0
   -2.2625    1.1458    0.0000 N   0  0  0  0  0  0  0  0  0  0  0  0
    1.7667    4.2042    0.0000 S   0  0  0  0  0  0  0  0  0  0  0  0
    8.2167    0.2458    0.0000 N   0  0  0  0  0  0  0  0  0  0  0  0
   -8.1542    5.6542    0.0000 C   0  0  0  0  0  0  0  0  0  0  0  0
    6.4042    2.5000    0.0000 C   0  0  0  0  0  0  0  0  0  0  0  0
   -3.2208    8.5500    0.0000 C   0  0  0  0  0  0  0  0  0  0  0  0
   11.0500    0.6958    0.0000 C   0  0  3  0  0  0  0  0  0  0  0  0
    7.4375    5.1167    0.0000 O   0  0  0  0  0  0  0  0  0  0  0  0
    3.5792    2.0458    0.0000 C   0  0  0  0  0  0  0  0  0  0  0  0
   -8.1542    8.5500    0.0000 C   0  0  0  0  0  0  0  0  0  0  0  0
  -10.6292    4.2042    0.0000 C   0  0  0  0  0  0  0  0  0  0  0  0
   12.0792    3.4000    0.0000 C   0  0  0  0  0  0  0  0  0  0  0  0
  -13.1000    8.5500    0.0000 C   0  0  0  0  0  0  0  0  0  0  0  0
  -10.6292    9.9042    0.0000 C   0  0  0  0  0  0  0  0  0  0  0  0
  -13.1000    5.6542    0.0000 C   0  0  0  0  0  0  0  0  0  0  0  0
  -15.5667   10.0000    0.0000 Cl  0  0  0  0  0  0  0  0  0  0  0  0
   -5.6958    9.9042    0.0000 C   0  0  0  0  0  0  0  0  0  0  0  0
   -0.7500    9.9042    0.0000 C   0  0  0  0  0  0  0  0  0  0  0  0
   12.8542   -1.5542    0.0000 C   0  0  0  0  0  0  0  0  0  0  0  0
   14.9042    3.7708    0.0000 C   0  0  0  0  0  0  0  0  0  0  0  0
   10.2667    5.5667    0.0000 C   0  0  0  0  0  0  0  0  0  0  0  0
   -0.7500   12.8000    0.0000 C   0  0  0  0  0  0  0  0  0  0  0  0
   11.2875    8.2792    0.0000 C   0  0  0  0  0  0  0  0  0  0  0  0
   16.0000    6.4667    0.0000 C   0  0  0  0  0  0  0  0  0  0  0  0
   -5.6958   12.8000    0.0000 C   0  0  0  0  0  0  0  0  0  0  0  0
   14.1292    8.7292    0.0000 C   0  0  0  0  0  0  0  0  0  0  0  0
   -3.2208   14.2500    0.0000 C   0  0  0  0  0  0  0  0  0  0  0  0
  2  1  1  0  0  0  0
  3  2  2  0  0  0  0
  4  1  1  0  0  0  0
  5  4  2  0  0  0  0
  6  4  1  0  0  0  0
  7  9  1  0  0  0  0
  8  2  1  0  0  0  0
  9 13  1  0  0  0  0
 10  1  1  0  0  0  0
 11  7  1  0  0  0  0
 12  9  2  0  0  0  0
 13  6  1  0  0  0  0
 14  8  2  0  0  0  0
 15  8  1  0  0  0  0
 16 11  1  0  0  0  0
 17 19  1  0  0  0  0
 18 14  1  0  0  0  0
 19 15  2  0  0  0  0
 20 17  1  0  0  0  0
 21 10  1  0  0  0  0
 22 10  2  0  0  0  0
 23 11  1  0  0  0  0
 24 16  2  0  0  0  0
 25 16  1  0  0  0  0
 26 22  1  0  0  0  0
 27 25  2  0  0  0  0
 28 24  1  0  0  0  0
 29 21  2  0  0  0  0
 30 27  1  0  0  0  0
 31 26  2  0  0  0  0
  5  3  1  0  0  0  0
 29 31  1  0  0  0  0
 18 17  2  0  0  0  0
 28 30  2  0  0  0  0
M  END
> <#>
1722

> <PLATE>
LAT022

> <ROW>
B

> <COL>
7

> <COORD>
B07

> <LATID>
LAT022B07

> <Supplier>
Chembridge

> <Suplier_CAT#>
6964934

> <Name>
Novel

> <Concentration_(mM)>
2.5

> <IC50_(µM)>
>100

> <Yeast_Active?>
-

> <Pubchem_CID>
2294628

$$$$
