
  -ISIS-  08130814242D

 33 36  0  0  0  0  0  0  0  0999 V2000
    7.8167   -2.9917    0.0000 N   0  0  3  0  0  0  0  0  0  0  0  0
    7.7292   -3.8125    0.0000 C   0  0  0  0  0  0  0  0  0  0  0  0
    6.9167   -3.9792    0.0000 N   0  0  0  0  0  0  0  0  0  0  0  0
    7.0667   -2.6542    0.0000 C   0  0  0  0  0  0  0  0  0  0  0  0
    6.5125   -3.2625    0.0000 N   0  0  0  0  0  0  0  0  0  0  0  0
    8.5292   -2.5875    0.0000 C   0  0  0  0  0  0  0  0  0  0  0  0
    6.9000   -1.8417    0.0000 S   0  0  0  0  0  0  0  0  0  0  0  0
    5.9500   -0.7792    0.0000 C   0  0  0  0  0  0  0  0  0  0  0  0
    8.3375   -4.3667    0.0000 C   0  0  0  0  0  0  0  0  0  0  0  0
    5.1667   -0.5167    0.0000 N   0  0  0  0  0  0  0  0  0  0  0  0
    6.5667   -0.2292    0.0000 O   0  0  0  0  0  0  0  0  0  0  0  0
    9.2417   -3.0042    0.0000 C   0  0  0  0  0  0  0  0  0  0  0  0
    8.5375   -1.7667    0.0000 C   0  0  0  0  0  0  0  0  0  0  0  0
    6.1167   -1.5875    0.0000 C   0  0  0  0  0  0  0  0  0  0  0  0
    5.0000    0.2875    0.0000 C   0  0  0  0  0  0  0  0  0  0  0  0
    4.2167    0.5458    0.0000 C   0  0  0  0  0  0  0  0  0  0  0  0
    9.9667   -1.7667    0.0000 C   0  0  0  0  0  0  0  0  0  0  0  0
    9.9625   -2.5917    0.0000 C   0  0  0  0  0  0  0  0  0  0  0  0
    9.2500   -1.3542    0.0000 C   0  0  0  0  0  0  0  0  0  0  0  0
    2.6500    1.0625    0.0000 C   0  0  0  0  0  0  0  0  0  0  0  0
    4.0500    1.3583    0.0000 C   0  0  0  0  0  0  0  0  0  0  0  0
    3.6042   -0.0042    0.0000 C   0  0  0  0  0  0  0  0  0  0  0  0
    2.8167    0.2500    0.0000 C   0  0  0  0  0  0  0  0  0  0  0  0
    3.2667    1.6125    0.0000 C   0  0  0  0  0  0  0  0  0  0  0  0
   10.6792   -1.3542    0.0000 O   0  0  0  0  0  0  0  0  0  0  0  0
    9.1167   -4.1167    0.0000 C   0  0  0  0  0  0  0  0  0  0  0  0
    8.1625   -5.1750    0.0000 C   0  0  0  0  0  0  0  0  0  0  0  0
   10.6792   -0.5292    0.0000 C   0  0  0  0  0  0  0  0  0  0  0  0
    1.8667    1.3208    0.0000 C   0  0  0  0  0  0  0  0  0  0  0  0
   11.4000   -0.1250    0.0000 C   0  0  0  0  0  0  0  0  0  0  0  0
    9.7292   -4.6667    0.0000 C   0  0  0  0  0  0  0  0  0  0  0  0
    8.7667   -5.7292    0.0000 C   0  0  0  0  0  0  0  0  0  0  0  0
    9.5542   -5.4792    0.0000 C   0  0  0  0  0  0  0  0  0  0  0  0
  2  1  1  0  0  0  0
  3  2  2  0  0  0  0
  4  1  1  0  0  0  0
  5  4  2  0  0  0  0
  6  1  1  0  0  0  0
  7  4  1  0  0  0  0
  8 14  1  0  0  0  0
  9  2  1  0  0  0  0
 10  8  1  0  0  0  0
 11  8  2  0  0  0  0
 12  6  2  0  0  0  0
 13  6  1  0  0  0  0
 14  7  1  0  0  0  0
 15 10  1  0  0  0  0
 16 15  1  0  0  0  0
 17 19  1  0  0  0  0
 18 12  1  0  0  0  0
 19 13  2  0  0  0  0
 20 23  1  0  0  0  0
 21 16  2  0  0  0  0
 22 16  1  0  0  0  0
 23 22  2  0  0  0  0
 24 21  1  0  0  0  0
 25 17  1  0  0  0  0
 26  9  1  0  0  0  0
 27  9  2  0  0  0  0
 28 25  1  0  0  0  0
 29 20  1  0  0  0  0
 30 28  1  0  0  0  0
 31 26  2  0  0  0  0
 32 27  1  0  0  0  0
 33 32  2  0  0  0  0
  5  3  1  0  0  0  0
 18 17  2  0  0  0  0
 31 33  1  0  0  0  0
 24 20  2  0  0  0  0
M  END
> <#>
1736

> <PLATE>
LAT022

> <ROW>
H

> <COL>
8

> <COORD>
H08

> <LATID>
LAT022H08

> <Supplier>
Chembridge

> <Suplier_CAT#>
7759141

> <Name>
Novel

> <Concentration_(mM)>
2.5

> <IC50_(µM)>
inactive 

> <Yeast_Active?>
-

> <Pubchem_CID>
NULL

$$$$
