
  -ISIS-  08130814242D

 19 20  0  0  0  0  0  0  0  0999 V2000
    2.2375    0.9708    0.0000 C   0  0  0  0  0  0  0  0  0  0  0  0
    1.9000    2.2708    0.0000 C   0  0  0  0  0  0  0  0  0  0  0  0
    3.5167    0.6125    0.0000 C   0  0  0  0  0  0  0  0  0  0  0  0
   -0.3208    1.6958    0.0000 N   0  0  0  0  0  0  0  0  0  0  0  0
    1.3167    0.0458    0.0000 C   0  0  0  0  0  0  0  0  0  0  0  0
    0.6167    2.5958    0.0000 N   0  0  0  0  0  0  0  0  0  0  0  0
    2.8167    3.1708    0.0000 O   0  0  0  0  0  0  0  0  0  0  0  0
   -4.7083    0.5500    0.0000 N   0  0  0  0  0  0  0  0  0  0  0  0
   -1.5625    2.0208    0.0000 C   0  0  0  0  0  0  0  0  0  0  0  0
    3.8542   -0.6500    0.0000 C   0  0  0  0  0  0  0  0  0  0  0  0
   -2.5000    1.0958    0.0000 C   0  0  0  0  0  0  0  0  0  0  0  0
    1.6542   -1.2167    0.0000 C   0  0  0  0  0  0  0  0  0  0  0  0
    2.9375   -1.5792    0.0000 C   0  0  0  0  0  0  0  0  0  0  0  0
    4.4375    1.5458    0.0000 O   0  0  0  0  0  0  0  0  0  0  0  0
    0.7000   -2.1500    0.0000 Br  0  0  0  0  0  0  0  0  0  0  0  0
   -3.7625    1.4500    0.0000 C   0  0  0  0  0  0  0  0  0  0  0  0
   -4.3833   -0.7375    0.0000 C   0  0  0  0  0  0  0  0  0  0  0  0
   -2.1833   -0.1667    0.0000 C   0  0  0  0  0  0  0  0  0  0  0  0
   -3.1208   -1.1000    0.0000 C   0  0  0  0  0  0  0  0  0  0  0  0
  2  1  1  0  0  0  0
  3  1  1  0  0  0  0
  4  6  1  0  0  0  0
  5  1  2  0  0  0  0
  6  2  1  0  0  0  0
  7  2  2  0  0  0  0
  8 16  2  0  0  0  0
  9  4  2  0  0  0  0
 10  3  2  0  0  0  0
 11  9  1  0  0  0  0
 12  5  1  0  0  0  0
 13 12  2  0  0  0  0
 14  3  1  0  0  0  0
 15 12  1  0  0  0  0
 16 11  1  0  0  0  0
 17 19  2  0  0  0  0
 18 11  2  0  0  0  0
 19 18  1  0  0  0  0
 13 10  1  0  0  0  0
 17  8  1  0  0  0  0
M  END
> <#>
1597

> <PLATE>
LAT020

> <ROW>
E

> <COL>
11

> <COORD>
E11

> <LATID>
LAT020E11

> <Supplier>
Chembridge

> <Suplier_CAT#>
5275878

> <Name>
Novel

> <Concentration_(mM)>
2.5

> <IC50_(µM)>
>100

> <Yeast_Active?>
-

> <Pubchem_CID>
677301

$$$$
