
  -ISIS-  08130814242D

 18 19  0  0  0  0  0  0  0  0999 V2000
    2.3000    0.9000    0.0000 C   0  0  0  0  0  0  0  0  0  0  0  0
    1.2000    0.2833    0.0000 N   0  0  0  0  0  0  0  0  0  0  0  0
    2.6542    0.2625    0.0000 C   0  0  0  0  0  0  0  0  0  0  0  0
    1.5542    0.9000    0.0000 N   0  0  0  0  0  0  0  0  0  0  0  0
    2.6542    1.5458    0.0000 O   0  0  0  0  0  0  0  0  0  0  0  0
   -1.0208   -1.0167    0.0000 N   0  0  0  0  0  0  0  0  0  0  0  0
    0.4542    0.2833    0.0000 C   0  0  0  0  0  0  0  0  0  0  0  0
    2.3000   -0.3792    0.0000 C   0  0  0  0  0  0  0  0  0  0  0  0
    3.4000    0.2625    0.0000 C   0  0  0  0  0  0  0  0  0  0  0  0
    0.0792   -0.3792    0.0000 C   0  0  0  0  0  0  0  0  0  0  0  0
    3.3792   -1.0167    0.0000 C   0  0  0  0  0  0  0  0  0  0  0  0
    2.6792   -1.0167    0.0000 C   0  0  0  0  0  0  0  0  0  0  0  0
    3.7542   -0.3792    0.0000 C   0  0  0  0  0  0  0  0  0  0  0  0
   -0.6625   -0.3792    0.0000 C   0  0  0  0  0  0  0  0  0  0  0  0
    3.7000   -1.6667    0.0000 O   0  0  0  0  0  0  0  0  0  0  0  0
   -0.6625   -1.6375    0.0000 C   0  0  0  0  0  0  0  0  0  0  0  0
    0.4375   -1.0167    0.0000 C   0  0  0  0  0  0  0  0  0  0  0  0
    0.0792   -1.6375    0.0000 C   0  0  0  0  0  0  0  0  0  0  0  0
  2  4  1  0  0  0  0
  3  1  1  0  0  0  0
  4  1  1  0  0  0  0
  5  1  2  0  0  0  0
  6 14  1  0  0  0  0
  7  2  2  0  0  0  0
  8  3  2  0  0  0  0
  9  3  1  0  0  0  0
 10  7  1  0  0  0  0
 11 13  1  0  0  0  0
 12  8  1  0  0  0  0
 13  9  2  0  0  0  0
 14 10  2  0  0  0  0
 15 11  1  0  0  0  0
 16 18  1  0  0  0  0
 17 10  1  0  0  0  0
 18 17  2  0  0  0  0
 12 11  2  0  0  0  0
  6 16  2  0  0  0  0
M  END
> <#>
1650

> <PLATE>
LAT021

> <ROW>
B

> <COL>
8

> <COORD>
B08

> <LATID>
LAT021B08

> <Supplier>
Chembridge

> <Suplier_CAT#>
5336667

> <Name>
Novel

> <Concentration_(mM)>
2.5

> <IC50_(µM)>
inactive

> <Yeast_Active?>
-

> <Pubchem_CID>
310067

$$$$
