
  -ISIS-  08130814242D

 18 19  0  0  0  0  0  0  0  0999 V2000
   -2.7125   -0.8042    0.0000 C   0  0  0  0  0  0  0  0  0  0  0  0
   -2.4333   -1.6792    0.0000 C   0  0  0  0  0  0  0  0  0  0  0  0
   -3.1833   -2.2167    0.0000 O   0  0  0  0  0  0  0  0  0  0  0  0
   -3.6333   -0.8042    0.0000 C   0  0  0  0  0  0  0  0  0  0  0  0
   -2.1000   -0.0875    0.0000 C   0  0  0  0  0  0  0  0  0  0  0  0
   -3.9583   -1.7000    0.0000 C   0  0  0  0  0  0  0  0  0  0  0  0
   -0.5458    0.3500    0.0000 N   0  0  0  0  0  0  0  0  0  0  0  0
   -1.1833   -0.3167    0.0000 N   0  0  0  0  0  0  0  0  0  0  0  0
   -2.3958    0.7833    0.0000 O   0  0  0  0  0  0  0  0  0  0  0  0
    1.3667    2.3625    0.0000 N   0  0  0  0  0  0  0  0  0  0  0  0
    0.3542    0.1333    0.0000 C   0  0  0  0  0  0  0  0  0  0  0  0
    1.0000    0.8000    0.0000 C   0  0  0  0  0  0  0  0  0  0  0  0
   -1.5125   -2.0167    0.0000 C   0  0  0  0  0  0  0  0  0  0  0  0
    0.7500    1.6833    0.0000 C   0  0  0  0  0  0  0  0  0  0  0  0
   -4.8125   -2.0167    0.0000 C   0  0  0  0  0  0  0  0  0  0  0  0
    2.2667    2.1625    0.0000 C   0  0  0  0  0  0  0  0  0  0  0  0
    1.9042    0.6000    0.0000 C   0  0  0  0  0  0  0  0  0  0  0  0
    2.5500    1.2708    0.0000 C   0  0  0  0  0  0  0  0  0  0  0  0
  2  1  2  0  0  0  0
  3  2  1  0  0  0  0
  4  1  1  0  0  0  0
  5  1  1  0  0  0  0
  6  4  2  0  0  0  0
  7  8  1  0  0  0  0
  8  5  1  0  0  0  0
  9  5  2  0  0  0  0
 10 14  2  0  0  0  0
 11  7  2  0  0  0  0
 12 11  1  0  0  0  0
 13  2  1  0  0  0  0
 14 12  1  0  0  0  0
 15  6  1  0  0  0  0
 16 18  2  0  0  0  0
 17 12  2  0  0  0  0
 18 17  1  0  0  0  0
  3  6  1  0  0  0  0
 16 10  1  0  0  0  0
M  END
> <#>
1681

> <PLATE>
LAT022

> <ROW>
A

> <COL>
2

> <COORD>
A02

> <LATID>
LAT022A02

> <Supplier>
Chembridge

> <Suplier_CAT#>
5712015

> <Name>
Novel

> <Concentration_(mM)>
2.5

> <IC50_(µM)>
>100

> <Yeast_Active?>
-

> <Pubchem_CID>
847609

$$$$
