
  -ISIS-  08130814242D

 17 19  0  0  0  0  0  0  0  0999 V2000
   -4.0658    1.6617    0.0000 O   0  0  0  0  0  0  0  0  0  0  0  0
   -4.0727    0.4117    0.0000 C   0  0  0  0  0  0  0  0  0  0  0  0
   -5.1580   -0.2073    0.0000 C   0  0  0  0  0  0  0  0  0  0  0  0
   -5.1595   -1.4573    0.0000 C   0  0  0  0  0  0  0  0  0  0  0  0
   -4.0864   -2.0883    0.0000 C   0  0  0  0  0  0  0  0  0  0  0  0
   -3.0005   -1.4692    0.0000 C   0  0  0  0  0  0  0  0  0  0  0  0
   -1.9214   -2.1002    0.0000 C   0  0  0  0  0  0  0  0  0  0  0  0
   -0.8355   -1.4811    0.0000 C   0  0  0  0  0  0  0  0  0  0  0  0
   -0.8286   -0.2312    0.0000 C   0  0  0  0  0  0  0  0  0  0  0  0
    0.2574    0.3879    0.0000 C   0  0  0  0  0  0  0  0  0  0  0  0
    1.3365   -0.2431    0.0000 C   0  0  0  0  0  0  0  0  0  0  0  0
    1.3296   -1.4931    0.0000 C   0  0  0  0  0  0  0  0  0  0  0  0
    0.2436   -2.1121    0.0000 C   0  0  0  0  0  0  0  0  0  0  0  0
    0.2145    1.6843    0.0000 O   0  0  0  0  0  0  0  0  0  0  0  0
   -1.9077    0.3998    0.0000 C   0  0  0  0  0  0  0  0  0  0  0  0
   -2.9936   -0.2192    0.0000 C   0  0  0  0  0  0  0  0  0  0  0  0
   -1.9394    1.8100    0.0000 O   0  0  0  0  0  0  0  0  0  0  0  0
  1  2  1  0  0  0  0
  2  3  2  0  0  0  0
  3  4  1  0  0  0  0
  4  5  2  0  0  0  0
  5  6  1  0  0  0  0
  6  7  2  0  0  0  0
  7  8  1  0  0  0  0
  8  9  2  0  0  0  0
  9 10  1  0  0  0  0
 10 11  2  0  0  0  0
 11 12  1  0  0  0  0
 12 13  2  0  0  0  0
  8 13  1  0  0  0  0
 10 14  1  0  0  0  0
  9 15  1  0  0  0  0
 15 16  2  0  0  0  0
  6 16  1  0  0  0  0
  2 16  1  0  0  0  0
 15 17  1  0  0  0  0
M  END
> <#>
360

> <PLATE>
LAT005

> <ROW>
H

> <COL>
6

> <COORD>
H06

> <LATID>
LAT005H06

> <Supplier>
Sigma

> <Suplier_CAT#>
D2773

> <Name>
Dianthrol

> <Concentration_(mM)>
2.5

> <IC50_(µM)>
inactive

> <Yeast_Active?>
-

> <Pubchem_CID>
10187

$$$$
