
  -ISIS-  08130814242D

 17 18  0  0  0  0  0  0  0  0999 V2000
    0.2357    1.4344    0.0000 C   0  0  0  0  0  0  0  0  0  0  0  0
   -0.8469    0.8094    0.0000 C   0  0  0  0  0  0  0  0  0  0  0  0
   -1.9294    1.4344    0.0000 C   0  0  0  0  0  0  0  0  0  0  0  0
   -3.0119    0.8094    0.0000 C   0  0  0  0  0  0  0  0  0  0  0  0
   -3.0119   -0.4406    0.0000 C   0  0  0  0  0  0  0  0  0  0  0  0
   -4.0945   -1.0656    0.0000 C   0  0  0  0  0  0  0  0  0  0  0  0
   -5.1770   -0.4406    0.0000 C   0  0  0  0  0  0  0  0  0  0  0  0
   -5.1770    0.8094    0.0000 C   0  0  0  0  0  0  0  0  0  0  0  0
   -4.0945    1.4344    0.0000 C   0  0  0  0  0  0  0  0  0  0  0  0
    1.3182    0.8094    0.0000 C   0  0  0  0  0  0  0  0  0  0  0  0
    2.4007    1.4344    0.0000 C   0  0  0  0  0  0  0  0  0  0  0  0
    3.4833    0.8094    0.0000 C   0  0  0  0  0  0  0  0  0  0  0  0
    3.4833   -0.4406    0.0000 C   0  0  0  0  0  0  0  0  0  0  0  0
    2.4007   -1.0656    0.0000 C   0  0  0  0  0  0  0  0  0  0  0  0
    1.3182   -0.4406    0.0000 C   0  0  0  0  0  0  0  0  0  0  0  0
    2.4007    2.6844    0.0000 O   0  0  0  0  0  0  0  0  0  0  0  0
   -1.9294    2.6844    0.0000 O   0  0  0  0  0  0  0  0  0  0  0  0
  1  2  2  0  0  0  0
  2  3  1  0  0  0  0
  4  5  1  0  0  0  0
  5  6  2  0  0  0  0
  6  7  1  0  0  0  0
  7  8  2  0  0  0  0
  8  9  1  0  0  0  0
  4  9  2  0  0  0  0
  3  4  1  0  0  0  0
 10 11  1  0  0  0  0
 11 12  2  0  0  0  0
 12 13  1  0  0  0  0
 13 14  2  0  0  0  0
 14 15  1  0  0  0  0
 10 15  2  0  0  0  0
 11 16  1  0  0  0  0
  1 10  1  0  0  0  0
  3 17  2  0  0  0  0
M  END
> <#>
368

> <PLATE>
LAT005

> <ROW>
H

> <COL>
7

> <COORD>
H07

> <LATID>
LAT005H07

> <Supplier>
Sigma

> <Suplier_CAT#>
S102504

> <Name>
1-(2-Hydroxy-Phenyl)-3-Phenyl-Propenone

> <Concentration_(mM)>
2.5

> <IC50_(µM)>
>100

> <Yeast_Active?>
+

> <Pubchem_CID>
97765

$$$$
