
  -ISIS-  08130814242D

 31 34  0  0  0  0  0  0  0  0999 V2000
    7.3917    2.6208    0.0000 N   0  0  3  0  0  0  0  0  0  0  0  0
    7.8375    3.2333    0.0000 C   0  0  0  0  0  0  0  0  0  0  0  0
    7.3917    3.8333    0.0000 N   0  0  0  0  0  0  0  0  0  0  0  0
    6.6792    2.8583    0.0000 C   0  0  0  0  0  0  0  0  0  0  0  0
    6.6792    3.6083    0.0000 N   0  0  0  0  0  0  0  0  0  0  0  0
    6.0750    2.4125    0.0000 S   0  0  0  0  0  0  0  0  0  0  0  0
    8.5875    3.2333    0.0000 C   0  0  0  0  0  0  0  0  0  0  0  0
    7.6292    1.9083    0.0000 C   0  0  0  0  0  0  0  0  0  0  0  0
    4.7792    2.2750    0.0000 C   0  0  0  0  0  0  0  0  0  0  0  0
    4.1000    2.5833    0.0000 N   0  0  0  0  0  0  0  0  0  0  0  0
    4.8625    1.5333    0.0000 O   0  0  0  0  0  0  0  0  0  0  0  0
    5.3917    2.7208    0.0000 C   0  0  0  0  0  0  0  0  0  0  0  0
    8.9625    2.5833    0.0000 C   0  0  0  0  0  0  0  0  0  0  0  0
    8.9625    3.8750    0.0000 C   0  0  0  0  0  0  0  0  0  0  0  0
    3.4917    2.1458    0.0000 C   0  0  0  0  0  0  0  0  0  0  0  0
    2.8042    2.4458    0.0000 C   0  0  0  0  0  0  0  0  0  0  0  0
    9.7125    3.8750    0.0000 C   0  0  0  0  0  0  0  0  0  0  0  0
    9.7125    2.5833    0.0000 C   0  0  0  0  0  0  0  0  0  0  0  0
   10.0792    3.2333    0.0000 C   0  0  0  0  0  0  0  0  0  0  0  0
    1.4375    3.0583    0.0000 C   0  0  0  0  0  0  0  0  0  0  0  0
    2.1917    2.0083    0.0000 C   0  0  0  0  0  0  0  0  0  0  0  0
    2.7292    3.1958    0.0000 C   0  0  0  0  0  0  0  0  0  0  0  0
    1.5125    2.3083    0.0000 C   0  0  0  0  0  0  0  0  0  0  0  0
    2.0417    3.4958    0.0000 C   0  0  0  0  0  0  0  0  0  0  0  0
    7.1250    1.3500    0.0000 C   0  0  0  0  0  0  0  0  0  0  0  0
    8.3625    1.7500    0.0000 C   0  0  0  0  0  0  0  0  0  0  0  0
   10.8292    3.2333    0.0000 C   0  0  0  0  0  0  0  0  0  0  0  0
    0.7500    3.3583    0.0000 C   0  0  0  0  0  0  0  0  0  0  0  0
    7.3542    0.6375    0.0000 C   0  0  0  0  0  0  0  0  0  0  0  0
    8.5917    1.0375    0.0000 C   0  0  0  0  0  0  0  0  0  0  0  0
    8.0917    0.4833    0.0000 C   0  0  0  0  0  0  0  0  0  0  0  0
  2  1  1  0  0  0  0
  3  2  2  0  0  0  0
  4  1  1  0  0  0  0
  5  4  2  0  0  0  0
  6  4  1  0  0  0  0
  7  2  1  0  0  0  0
  8  1  1  0  0  0  0
  9 12  1  0  0  0  0
 10  9  1  0  0  0  0
 11  9  2  0  0  0  0
 12  6  1  0  0  0  0
 13  7  2  0  0  0  0
 14  7  1  0  0  0  0
 15 10  1  0  0  0  0
 16 15  1  0  0  0  0
 17 14  2  0  0  0  0
 18 13  1  0  0  0  0
 19 17  1  0  0  0  0
 20 24  1  0  0  0  0
 21 16  2  0  0  0  0
 22 16  1  0  0  0  0
 23 21  1  0  0  0  0
 24 22  2  0  0  0  0
 25  8  1  0  0  0  0
 26  8  2  0  0  0  0
 27 19  1  0  0  0  0
 28 20  1  0  0  0  0
 29 25  2  0  0  0  0
 30 26  1  0  0  0  0
 31 30  2  0  0  0  0
  5  3  1  0  0  0  0
 29 31  1  0  0  0  0
 18 19  2  0  0  0  0
 23 20  2  0  0  0  0
M  END
> <#>
1741

> <PLATE>
LAT022

> <ROW>
E

> <COL>
9

> <COORD>
E09

> <LATID>
LAT022E09

> <Supplier>
Chembridge

> <Suplier_CAT#>
7930834

> <Name>
Novel

> <Concentration_(mM)>
2.5

> <IC50_(µM)>
inactive

> <Yeast_Active?>
-

> <Pubchem_CID>
2967319

$$$$
