
  -ISIS-  08130814242D

 21 22  0  0  0  0  0  0  0  0999 V2000
   -3.4125   -0.4875    0.0000 C   0  0  0  0  0  0  0  0  0  0  0  0
   -4.4125    0.0833    0.0000 C   0  0  0  0  0  0  0  0  0  0  0  0
   -3.4125    0.1125    0.0000 C   0  0  0  0  0  0  0  0  0  0  0  0
   -3.9125    0.3833    0.0000 C   0  0  0  0  0  0  0  0  0  0  0  0
   -3.9125   -0.7875    0.0000 C   0  0  0  0  0  0  0  0  0  0  0  0
   -4.4125   -0.4875    0.0000 C   0  0  0  0  0  0  0  0  0  0  0  0
   -2.8958   -0.7875    0.0000 C   0  0  0  0  0  0  0  0  0  0  0  0
   -2.3958   -0.4875    0.0000 C   0  0  0  0  0  0  0  0  0  0  0  0
   -2.8958    0.3833    0.0000 C   0  0  0  0  0  0  0  0  0  0  0  0
   -4.9333    0.3833    0.0000 C   0  0  3  0  0  0  0  0  0  0  0  0
   -2.3958    0.0833    0.0000 C   0  0  0  0  0  0  0  0  0  0  0  0
   -1.8500   -0.7542    0.0000 C   0  0  3  0  0  0  0  0  0  0  0  0
   -3.9333    0.9833    0.0000 O   0  0  0  0  0  0  0  0  0  0  0  0
   -3.9333   -1.3542    0.0000 O   0  0  0  0  0  0  0  0  0  0  0  0
   -2.8708   -1.3542    0.0000 O   0  0  0  0  0  0  0  0  0  0  0  0
   -4.6583    0.8958    0.0000 C   0  0  0  0  0  0  0  0  0  0  0  0
   -5.4583    0.6833    0.0000 C   0  0  0  0  0  0  0  0  0  0  0  0
   -5.2333   -0.1292    0.0000 C   0  0  0  0  0  0  0  0  0  0  0  0
   -1.3333   -1.0292    0.0000 C   0  0  0  0  0  0  0  0  0  0  0  0
   -2.1333   -1.3000    0.0000 C   0  0  0  0  0  0  0  0  0  0  0  0
   -1.5958   -0.2167    0.0000 C   0  0  0  0  0  0  0  0  0  0  0  0
  2  6  2  0  0  0  0
  3  1  2  0  0  0  0
  4  3  1  0  0  0  0
  5  1  1  0  0  0  0
  6  5  1  0  0  0  0
  7  1  1  0  0  0  0
  8  7  2  0  0  0  0
  9  3  1  0  0  0  0
 10  2  1  0  0  0  0
 11  8  1  0  0  0  0
 12  8  1  0  0  0  0
 13  4  2  0  0  0  0
 14  5  2  0  0  0  0
 15  7  1  0  0  0  0
 16 10  1  0  0  0  0
 17 10  1  0  0  0  0
 18 10  1  0  0  0  0
 19 12  1  0  0  0  0
 20 12  1  0  0  0  0
 21 12  1  0  0  0  0
  4  2  1  0  0  0  0
  9 11  2  0  0  0  0
M  END
> <#>
1208

> <PLATE>
LAT016

> <ROW>
H

> <COL>
2

> <COORD>
H02

> <LATID>
LAT016H02

> <Supplier>
Chembridge

> <Suplier_CAT#>
5914723

> <Name>
Novel

> <Concentration_(mM)>
2.5

> <IC50_(µM)>
inactive

> <Yeast_Active?>
-

> <Pubchem_CID>
NULL

$$$$
