
  -ISIS-  08130814242D

 12 12  0  0  0  0  0  0  0  0999 V2000
    1.8375   -0.1656    0.0000 O   0  0  0  0  0  0  0  0  0  0  0  0
    0.5875   -0.1656    0.0000 C   0  0  1  0  0  0  0  0  0  0  0  0
   -0.0375   -1.2482    0.0000 C   0  0  1  0  0  0  0  0  0  0  0  0
    0.5875   -2.3307    0.0000 O   0  0  0  0  0  0  0  0  0  0  0  0
   -1.2875   -1.2482    0.0000 C   0  0  1  0  0  0  0  0  0  0  0  0
   -1.9125   -2.3307    0.0000 O   0  0  0  0  0  0  0  0  0  0  0  0
   -1.9125   -0.1656    0.0000 C   0  0  2  0  0  0  0  0  0  0  0  0
   -3.1625   -0.1656    0.0000 O   0  0  0  0  0  0  0  0  0  0  0  0
   -1.2875    0.9169    0.0000 C   0  0  1  0  0  0  0  0  0  0  0  0
   -1.9125    1.9994    0.0000 O   0  0  0  0  0  0  0  0  0  0  0  0
   -0.0375    0.9169    0.0000 C   0  0  2  0  0  0  0  0  0  0  0  0
    0.5875    1.9994    0.0000 O   0  0  0  0  0  0  0  0  0  0  0  0
  2  1  1  1  0  0  0
  2  3  1  0  0  0  0
  3  4  1  1  0  0  0
  3  5  1  0  0  0  0
  5  6  1  1  0  0  0
  5  7  1  0  0  0  0
  7  8  1  6  0  0  0
  7  9  1  0  0  0  0
  9 10  1  1  0  0  0
  9 11  1  0  0  0  0
  2 11  1  0  0  0  0
 11 12  1  6  0  0  0
M  END
> <#>
428

> <PLATE>
LAT006

> <ROW>
D

> <COL>
5

> <COORD>
D05

> <LATID>
LAT006D05

> <Supplier>
Sigma

> <Suplier_CAT#>
I-3011

> <Name>
Myo-Inositol

> <Concentration_(mM)>
2.5

> <IC50_(µM)>
inactive

> <Yeast_Active?>
-

> <Pubchem_CID>
892

$$$$
