
  -ISIS-  08130814242D

 27 26  0  0  0  0  0  0  0  0999 V2000
    4.7899   -3.5090    0.0000 N   0  0  3  0  0  0  0  0  0  0  0  0
    5.5627   -3.0629    0.0000 C   0  0  0  0  0  0  0  0  0  0  0  0
    6.3355   -3.5090    0.0000 C   0  0  0  0  0  0  0  0  0  0  0  0
    7.1083   -3.0629    0.0000 N   0  0  3  0  0  0  0  0  0  0  0  0
    7.8810   -3.5090    0.0000 C   0  0  0  0  0  0  0  0  0  0  0  0
    8.6538   -3.0629    0.0000 C   0  0  0  0  0  0  0  0  0  0  0  0
    9.4266   -3.5090    0.0000 N   0  0  3  0  0  0  0  0  0  0  0  0
    5.5627   -4.8475    0.0000 C   0  0  0  0  0  0  0  0  0  0  0  0
    4.7899   -4.4013    0.0000 C   0  0  0  0  0  0  0  0  0  0  0  0
    5.5627   -5.7398    0.0000 O   0  0  0  0  0  0  0  0  0  0  0  0
    6.3355   -4.4013    0.0000 O   0  0  0  0  0  0  0  0  0  0  0  0
    3.2444   -3.5090    0.0000 C   0  0  0  0  0  0  0  0  0  0  0  0
    4.0172   -3.0629    0.0000 C   0  0  0  0  0  0  0  0  0  0  0  0
    3.2444   -4.4013    0.0000 O   0  0  0  0  0  0  0  0  0  0  0  0
    2.4716   -3.0629    0.0000 O   0  0  0  0  0  0  0  0  0  0  0  0
   10.1993   -2.1705    0.0000 C   0  0  0  0  0  0  0  0  0  0  0  0
   10.1993   -3.0629    0.0000 C   0  0  0  0  0  0  0  0  0  0  0  0
   10.9721   -1.7244    0.0000 O   0  0  0  0  0  0  0  0  0  0  0  0
    9.4266   -1.7244    0.0000 O   0  0  0  0  0  0  0  0  0  0  0  0
   10.1993   -4.8475    0.0000 C   0  0  0  0  0  0  0  0  0  0  0  0
    9.4266   -4.4013    0.0000 C   0  0  0  0  0  0  0  0  0  0  0  0
   10.1993   -5.7398    0.0000 O   0  0  0  0  0  0  0  0  0  0  0  0
   10.9721   -4.4013    0.0000 O   0  0  0  0  0  0  0  0  0  0  0  0
    7.8810   -1.7244    0.0000 C   0  0  0  0  0  0  0  0  0  0  0  0
    7.1083   -2.1705    0.0000 C   0  0  0  0  0  0  0  0  0  0  0  0
    7.8810   -0.8321    0.0000 O   0  0  0  0  0  0  0  0  0  0  0  0
    8.6538   -2.1705    0.0000 O   0  0  0  0  0  0  0  0  0  0  0  0
  1  2  1  0  0  0  0
  2  3  1  0  0  0  0
  3  4  1  0  0  0  0
  4  5  1  0  0  0  0
  5  6  1  0  0  0  0
  6  7  1  0  0  0  0
  8  9  1  0  0  0  0
  8 10  2  0  0  0  0
  8 11  1  0  0  0  0
  1  9  1  0  0  0  0
 12 13  1  0  0  0  0
 12 14  2  0  0  0  0
 12 15  1  0  0  0  0
  1 13  1  0  0  0  0
 16 17  1  0  0  0  0
 16 18  2  0  0  0  0
 16 19  1  0  0  0  0
  7 17  1  0  0  0  0
 20 21  1  0  0  0  0
 20 22  2  0  0  0  0
 20 23  1  0  0  0  0
  7 21  1  0  0  0  0
 24 25  1  0  0  0  0
 24 26  2  0  0  0  0
 24 27  1  0  0  0  0
  4 25  1  0  0  0  0
M  END
> <#>
511

> <PLATE>
LAT007

> <ROW>
G

> <COL>
5

> <COORD>
G05

> <LATID>
LAT007G05

> <Supplier>
Aldrich

> <Suplier_CAT#>
28,556-0

> <Name>
Diethylenetriamine-Pentaacetic Acid

> <Concentration_(mM)>
2.5

> <IC50_(µM)>
inactive

> <Yeast_Active?>
-

> <Pubchem_CID>
3053

$$$$
