
  -ISIS-  08130814242D

 23 25  0  0  0  0  0  0  0  0999 V2000
    2.6292   -4.2542    0.0000 N   0  0  3  0  0  0  0  0  0  0  0  0
    1.7000   -3.7167    0.0000 C   0  0  0  0  0  0  0  0  0  0  0  0
    6.3542   -2.1000    0.0000 C   0  0  0  0  0  0  0  0  0  0  0  0
    3.5542   -3.7167    0.0000 C   0  0  0  0  0  0  0  0  0  0  0  0
    8.2667   -2.1000    0.0000 N   0  0  0  0  0  0  0  0  0  0  0  0
    5.4292   -2.6375    0.0000 C   0  0  0  0  0  0  0  0  0  0  0  0
    7.2875   -2.6375    0.0000 N   0  0  0  0  0  0  0  0  0  0  0  0
    1.7000   -2.6500    0.0000 O   0  0  0  0  0  0  0  0  0  0  0  0
    6.3542   -0.9542    0.0000 O   0  0  0  0  0  0  0  0  0  0  0  0
   11.1792   -0.5000    0.0000 N   0  0  0  0  0  0  0  0  0  0  0  0
    3.5542   -2.6375    0.0000 C   0  0  0  0  0  0  0  0  0  0  0  0
    4.5000   -4.2500    0.0000 C   0  0  0  0  0  0  0  0  0  0  0  0
    4.4875   -2.1000    0.0000 C   0  0  0  0  0  0  0  0  0  0  0  0
    5.4292   -3.7167    0.0000 C   0  0  0  0  0  0  0  0  0  0  0  0
    9.2042   -2.6667    0.0000 C   0  0  0  0  0  0  0  0  0  0  0  0
   10.2167   -2.1292    0.0000 C   0  0  0  0  0  0  0  0  0  0  0  0
    2.6292   -5.3292    0.0000 C   0  0  0  0  0  0  0  0  0  0  0  0
    0.7667   -4.2542    0.0000 C   0  0  0  0  0  0  0  0  0  0  0  0
   10.2167   -1.0292    0.0000 C   0  0  0  0  0  0  0  0  0  0  0  0
    0.7667   -5.3375    0.0000 C   0  0  0  0  0  0  0  0  0  0  0  0
   12.1375   -1.0292    0.0000 C   0  0  0  0  0  0  0  0  0  0  0  0
   11.1000   -2.7000    0.0000 C   0  0  0  0  0  0  0  0  0  0  0  0
   12.1375   -2.1667    0.0000 C   0  0  0  0  0  0  0  0  0  0  0  0
  2  1  1  0  0  0  0
  3  6  1  0  0  0  0
  4  1  1  0  0  0  0
  5  7  1  0  0  0  0
  6 14  1  0  0  0  0
  7  3  1  0  0  0  0
  8  2  2  0  0  0  0
  9  3  2  0  0  0  0
 10 19  1  0  0  0  0
 11  4  2  0  0  0  0
 12  4  1  0  0  0  0
 13 11  1  0  0  0  0
 14 12  2  0  0  0  0
 15  5  2  0  0  0  0
 16 15  1  0  0  0  0
 17  1  1  0  0  0  0
 18  2  1  0  0  0  0
 19 16  2  0  0  0  0
 20 17  1  0  0  0  0
 21 23  1  0  0  0  0
 22 16  1  0  0  0  0
 23 22  2  0  0  0  0
 20 18  1  0  0  0  0
  6 13  2  0  0  0  0
 21 10  2  0  0  0  0
M  END
> <#>
1593

> <PLATE>
LAT020

> <ROW>
A

> <COL>
11

> <COORD>
A11

> <LATID>
LAT020A11

> <Supplier>
Chembridge

> <Suplier_CAT#>
5249138

> <Name>
Novel

> <Concentration_(mM)>
2.5

> <IC50_(µM)>
>100

> <Yeast_Active?>
-

> <Pubchem_CID>
790550

$$$$
