
  -ISIS-  08130814242D

 15 16  0  0  0  0  0  0  0  0999 V2000
    0.4000    0.6708    0.0000 C   0  0  0  0  0  0  0  0  0  0  0  0
    0.7542    0.1333    0.0000 C   0  0  0  0  0  0  0  0  0  0  0  0
    0.4000   -0.3667    0.0000 S   0  0  0  0  0  0  0  0  0  0  0  0
   -0.2000    0.4708    0.0000 C   0  0  0  0  0  0  0  0  0  0  0  0
   -0.2000   -0.1667    0.0000 C   0  0  0  0  0  0  0  0  0  0  0  0
    0.6000    1.2958    0.0000 C   0  0  0  0  0  0  0  0  0  0  0  0
    1.4000    0.1125    0.0000 N   0  0  0  0  0  0  0  0  0  0  0  0
    0.1792    1.7708    0.0000 O   0  0  0  0  0  0  0  0  0  0  0  0
    1.2167    1.4125    0.0000 N   0  0  0  0  0  0  0  0  0  0  0  0
   -0.7000    0.8708    0.0000 C   0  0  0  0  0  0  0  0  0  0  0  0
   -0.7000   -0.5667    0.0000 C   0  0  0  0  0  0  0  0  0  0  0  0
    1.6375    0.9500    0.0000 C   0  0  0  0  0  0  0  0  0  0  0  0
   -1.3208    0.7125    0.0000 C   0  0  0  0  0  0  0  0  0  0  0  0
   -1.3208   -0.4042    0.0000 C   0  0  0  0  0  0  0  0  0  0  0  0
   -1.5833    0.1500    0.0000 C   0  0  0  0  0  0  0  0  0  0  0  0
  2  1  2  0  0  0  0
  3  2  1  0  0  0  0
  4  1  1  0  0  0  0
  5  4  2  0  0  0  0
  6  1  1  0  0  0  0
  7  2  1  0  0  0  0
  8  6  2  0  0  0  0
  9  6  1  0  0  0  0
 10  4  1  0  0  0  0
 11  5  1  0  0  0  0
 12  9  1  0  0  0  0
 13 10  1  0  0  0  0
 14 11  1  0  0  0  0
 15 13  1  0  0  0  0
  3  5  1  0  0  0  0
 14 15  1  0  0  0  0
M  END
> <#>
2004

> <PLATE>
LAT026

> <ROW>
D

> <COL>
2

> <COORD>
D02

> <LATID>
LAT026D02

> <Supplier>
Chembridge

> <Suplier_CAT#>
5581096

> <Sec_Name>
179_B11

> <Concentration_(mM)>
2.5

> <IC50_(µM)>
inactive

> <Yeast_Active?>
-

> <Pubchem_CID>
2854143

$$$$
