
  -ISIS-  08130814242D

 29 32  0  0  0  0  0  0  0  0999 V2000
   -2.7458    0.5708    0.0000 C   0  0  0  0  0  0  0  0  0  0  0  0
   -2.7458    1.3500    0.0000 N   0  0  0  0  0  0  0  0  0  0  0  0
   -2.0458    0.1500    0.0000 N   0  0  0  0  0  0  0  0  0  0  0  0
   -2.0458    1.7708    0.0000 C   0  0  0  0  0  0  0  0  0  0  0  0
   -1.3458    1.3708    0.0000 N   0  0  0  0  0  0  0  0  0  0  0  0
   -1.3458    0.5500    0.0000 C   0  0  0  0  0  0  0  0  0  0  0  0
   -3.4458    0.1500    0.0000 N   0  0  3  0  0  0  0  0  0  0  0  0
   -2.0458    2.5708    0.0000 N   0  0  0  0  0  0  0  0  0  0  0  0
   -0.6208   -0.6667    0.0000 N   0  0  0  0  0  0  0  0  0  0  0  0
   -0.6208    0.1333    0.0000 N   0  0  0  0  0  0  0  0  0  0  0  0
    1.4792    0.5625    0.0000 N   0  0  0  0  0  0  0  0  0  0  0  0
   -4.6208   -0.9667    0.0000 O   0  0  0  0  0  0  0  0  0  0  0  0
    0.1000   -1.0667    0.0000 C   0  0  0  0  0  0  0  0  0  0  0  0
    0.7875   -0.6542    0.0000 C   0  0  0  0  0  0  0  0  0  0  0  0
   -1.3458    2.9708    0.0000 C   0  0  0  0  0  0  0  0  0  0  0  0
    0.0542    3.7708    0.0000 C   0  0  0  0  0  0  0  0  0  0  0  0
    0.7792    4.1667    0.0000 Cl  0  0  0  0  0  0  0  0  0  0  0  0
   -1.3458    3.7958    0.0000 C   0  0  0  0  0  0  0  0  0  0  0  0
   -0.6458    2.5708    0.0000 C   0  0  0  0  0  0  0  0  0  0  0  0
   -0.6458    4.1875    0.0000 C   0  0  0  0  0  0  0  0  0  0  0  0
    0.0542    2.9958    0.0000 C   0  0  0  0  0  0  0  0  0  0  0  0
   -4.2208    0.3958    0.0000 C   0  0  0  0  0  0  0  0  0  0  0  0
   -3.2458   -0.6292    0.0000 C   0  0  0  0  0  0  0  0  0  0  0  0
    0.7875    0.1500    0.0000 C   0  0  0  0  0  0  0  0  0  0  0  0
    2.1792    0.1708    0.0000 C   0  0  0  0  0  0  0  0  0  0  0  0
   -4.8000   -0.1875    0.0000 C   0  0  0  0  0  0  0  0  0  0  0  0
   -3.8208   -1.1875    0.0000 C   0  0  0  0  0  0  0  0  0  0  0  0
    1.5000   -1.0500    0.0000 C   0  0  0  0  0  0  0  0  0  0  0  0
    2.1875   -0.6500    0.0000 C   0  0  0  0  0  0  0  0  0  0  0  0
  2  1  1  0  0  0  0
  3  1  2  0  0  0  0
  4  2  2  0  0  0  0
  5  6  2  0  0  0  0
  6  3  1  0  0  0  0
  7  1  1  0  0  0  0
  8  4  1  0  0  0  0
  9 10  1  0  0  0  0
 10  6  1  0  0  0  0
 11 24  2  0  0  0  0
 12 27  1  0  0  0  0
 13  9  2  0  0  0  0
 14 13  1  0  0  0  0
 15  8  1  0  0  0  0
 16 21  1  0  0  0  0
 17 16  1  0  0  0  0
 18 15  2  0  0  0  0
 19 15  1  0  0  0  0
 20 18  1  0  0  0  0
 21 19  2  0  0  0  0
 22  7  1  0  0  0  0
 23  7  1  0  0  0  0
 24 14  1  0  0  0  0
 25 29  2  0  0  0  0
 26 22  1  0  0  0  0
 27 23  1  0  0  0  0
 28 14  2  0  0  0  0
 29 28  1  0  0  0  0
 12 26  1  0  0  0  0
  5  4  1  0  0  0  0
 16 20  2  0  0  0  0
 25 11  1  0  0  0  0
M  END
> <#>
1633

> <PLATE>
LAT021

> <ROW>
A

> <COL>
6

> <COORD>
A06

> <LATID>
LAT021A06

> <Supplier>
Chembridge

> <Suplier_CAT#>
5114096

> <Name>
Novel

> <Concentration_(mM)>
2.5

> <IC50_(µM)>
>100

> <Yeast_Active?>
-

> <Pubchem_CID>
2828123

$$$$
