
  -ISIS-  08130814242D

109123  0  0  0  0  0  0  0  0999 V2000
    6.1375   -2.5250    0.0000 Co  0  3  0  0  0  0  0  0  0  0  0  0
    9.6625   -3.7167    0.0000 N   0  0  3  0  0  0  0  0  0  0  0  0
    5.2042   -2.7417    0.0000 N   0  0  3  0  0  0  0  0  0  0  0  0
    7.4667   -2.5250    0.0000 N   0  0  3  0  0  0  0  0  0  0  0  0
    5.8542   -1.5250    0.0000 N   0  0  3  0  0  0  0  0  0  0  0  0
    6.7042   -3.5500    0.0000 N   0  0  3  0  0  0  0  0  0  0  0  0
    4.9792   -3.4375    0.0000 C   0  0  3  0  0  0  0  0  0  0  0  0
   10.1042   -5.0625    0.0000 N   0  0  3  0  0  0  0  0  0  0  0  0
    0.9042    0.4833    0.0000 N   0  0  3  0  0  0  0  0  0  0  0  0
    5.4250   -0.9292    0.0000 C   0  0  0  0  0  0  0  0  0  0  0  0
    7.1375   -4.1417    0.0000 C   0  0  0  0  0  0  0  0  0  0  0  0
    7.6917   -1.8292    0.0000 C   0  0  0  0  0  0  0  0  0  0  0  0
    4.6250   -2.3125    0.0000 C   0  0  0  0  0  0  0  0  0  0  0  0
    8.0500   -2.9542    0.0000 C   0  0  0  0  0  0  0  0  0  0  0  0
    6.0125   -3.7750    0.0000 C   0  0  3  0  0  0  0  0  0  0  0  0
   10.5292   -3.7167    0.0000 C   0  0  0  0  0  0  0  0  0  0  0  0
   10.0792   -5.5917    0.0000 C   0  0  3  0  0  0  0  0  0  0  0  0
    1.4042    0.2250    0.0000 C   0  0  3  0  0  0  0  0  0  0  0  0
    6.5500   -1.3042    0.0000 C   0  0  0  0  0  0  0  0  0  0  0  0
    4.6125   -1.4917    0.0000 C   0  0  0  0  0  0  0  0  0  0  0  0
    7.9292   -3.8542    0.0000 C   0  0  0  0  0  0  0  0  0  0  0  0
    8.0750   -7.8167    0.0000 P   0  0  3  0  0  0  0  0  0  0  0  0
    9.4000   -4.5500    0.0000 C   0  0  0  0  0  0  0  0  0  0  0  0
    6.7042   -4.7292    0.0000 C   0  0  3  0  0  0  0  0  0  0  0  0
    4.2500   -3.4375    0.0000 C   0  0  3  0  0  0  0  0  0  0  0  0
   10.8000   -4.5417    0.0000 C   0  0  0  0  0  0  0  0  0  0  0  0
    3.6917    0.7750    0.0000 C   0  0  0  0  0  0  0  0  0  0  0  0
    0.3542   -0.0042    0.0000 C   0  0  0  0  0  0  0  0  0  0  0  0
    5.8542   -0.3500    0.0000 C   0  0  3  0  0  0  0  0  0  0  0  0
    7.3792   -1.3000    0.0000 C   0  0  0  0  0  0  0  0  0  0  0  0
    9.4625   -6.8500    0.0000 C   0  0  2  0  0  0  0  0  0  0  0  0
   -0.2833    0.3625    0.0000 C   0  0  0  0  0  0  0  0  0  0  0  0
    9.3167   -5.9917    0.0000 C   0  0  1  0  0  0  0  0  0  0  0  0
    4.0250   -2.7417    0.0000 C   0  0  3  0  0  0  0  0  0  0  0  0
   -0.1250    1.0833    0.0000 N   0  0  0  0  0  0  0  0  0  0  0  0
    6.0042   -4.5042    0.0000 C   0  0  3  0  0  0  0  0  0  0  0  0
    2.6625    0.6000    0.0000 C   0  0  1  0  0  0  0  0  0  0  0  0
    1.7250   -0.5000    0.0000 C   0  0  1  0  0  0  0  0  0  0  0  0
    8.4167   -1.8292    0.0000 C   0  0  3  0  0  0  0  0  0  0  0  0
    8.6417   -2.5250    0.0000 C   0  0  3  0  0  0  0  0  0  0  0  0
    1.9167    0.8083    0.0000 O   0  0  0  0  0  0  0  0  0  0  0  0
    0.6042    1.1583    0.0000 C   0  0  0  0  0  0  0  0  0  0  0  0
   10.7000   -6.2000    0.0000 O   0  0  0  0  0  0  0  0  0  0  0  0
    6.5500   -0.5667    0.0000 C   0  0  3  0  0  0  0  0  0  0  0  0
    8.7375   -7.0750    0.0000 O   0  0  0  0  0  0  0  0  0  0  0  0
    2.6667   -0.3167    0.0000 C   0  0  2  0  0  0  0  0  0  0  0  0
   10.3167   -6.9750    0.0000 C   0  0  2  0  0  0  0  0  0  0  0  0
   11.1042   -3.0750    0.0000 C   0  0  0  0  0  0  0  0  0  0  0  0
    7.3417   -7.8167    0.0000 O   0  0  0  0  0  0  0  0  0  0  0  0
   11.6417   -4.7167    0.0000 C   0  0  0  0  0  0  0  0  0  0  0  0
   -0.9125   -0.0042    0.0000 C   0  0  0  0  0  0  0  0  0  0  0  0
    0.3542   -0.7417    0.0000 N   0  0  0  0  0  0  0  0  0  0  0  0
   -0.9125   -0.7417    0.0000 N   0  0  0  0  0  0  0  0  0  0  0  0
    6.2417   -5.2917    0.0000 C   0  0  0  0  0  0  0  0  0  0  0  0
    5.4667   -6.5417    0.0000 N   0  0  0  0  0  0  0  0  0  0  0  0
    5.1625   -5.9542    0.0000 C   0  0  0  0  0  0  0  0  0  0  0  0
    3.3292   -3.5500    0.0000 C   0  0  0  0  0  0  0  0  0  0  0  0
    6.3792    0.1958    0.0000 C   0  0  0  0  0  0  0  0  0  0  0  0
    7.8042   -7.0417    0.0000 O   0  5  0  0  0  0  0  0  0  0  0  0
    3.6542   -2.1042    0.0000 C   0  0  0  0  0  0  0  0  0  0  0  0
    9.4875   -2.2167    0.0000 C   0  0  0  0  0  0  0  0  0  0  0  0
   11.9417   -3.2500    0.0000 C   0  0  0  0  0  0  0  0  0  0  0  0
   12.2167   -4.0667    0.0000 C   0  0  0  0  0  0  0  0  0  0  0  0
    8.0750   -8.4875    0.0000 O   0  0  0  0  0  0  0  0  0  0  0  0
    7.1417   -0.1375    0.0000 C   0  0  0  0  0  0  0  0  0  0  0  0
    5.1625   -4.3000    0.0000 C   0  0  0  0  0  0  0  0  0  0  0  0
    2.9125   -3.1000    0.0000 C   0  0  0  0  0  0  0  0  0  0  0  0
    6.2167    0.7750    0.0000 C   0  0  0  0  0  0  0  0  0  0  0  0
   -0.2833   -1.1042    0.0000 C   0  0  0  0  0  0  0  0  0  0  0  0
    4.6125   -4.6292    0.0000 C   0  0  0  0  0  0  0  0  0  0  0  0
    8.4042   -0.0042    0.0000 C   0  0  0  0  0  0  0  0  0  0  0  0
    2.5500   -1.4667    0.0000 C   0  0  0  0  0  0  0  0  0  0  0  0
    6.5042   -7.3042    0.0000 C   0  0  3  0  0  0  0  0  0  0  0  0
    4.5000   -5.9542    0.0000 O   0  0  0  0  0  0  0  0  0  0  0  0
    2.3375   -3.4667    0.0000 O   0  0  0  0  0  0  0  0  0  0  0  0
    4.6125   -5.2125    0.0000 O   0  0  0  0  0  0  0  0  0  0  0  0
    6.5750    1.4208    0.0000 O   0  0  0  0  0  0  0  0  0  0  0  0
    8.8792   -5.2417    0.0000 O   0  0  0  0  0  0  0  0  0  0  0  0
    8.3250    0.7250    0.0000 O   0  0  0  0  0  0  0  0  0  0  0  0
    2.9167   -0.8375    0.0000 O   0  0  0  0  0  0  0  0  0  0  0  0
    1.1750   -0.1375    0.0000 O   0  0  0  0  0  0  0  0  0  0  0  0
    4.6042   -4.0667    0.0000 C   0  0  0  0  0  0  0  0  0  0  0  0
    5.5042   -5.2875    0.0000 C   0  0  0  0  0  0  0  0  0  0  0  0
   10.6792   -1.5250    0.0000 O   0  0  0  0  0  0  0  0  0  0  0  0
    2.9167   -2.1042    0.0000 C   0  0  0  0  0  0  0  0  0  0  0  0
    7.8125   -0.4292    0.0000 C   0  0  0  0  0  0  0  0  0  0  0  0
    6.1417   -6.6792    0.0000 C   0  0  0  0  0  0  0  0  0  0  0  0
    8.4167   -4.1167    0.0000 C   0  0  0  0  0  0  0  0  0  0  0  0
    3.9167   -1.1917    0.0000 C   0  0  0  0  0  0  0  0  0  0  0  0
   -1.5458    0.3583    0.0000 N   0  0  0  0  0  0  0  0  0  0  0  0
    3.0292    0.2500    0.0000 O   0  0  0  0  0  0  0  0  0  0  0  0
   10.7042   -2.1917    0.0000 C   0  0  0  0  0  0  0  0  0  0  0  0
    7.3375   -5.0917    0.0000 C   0  0  0  0  0  0  0  0  0  0  0  0
    3.9417   -3.9375    0.0000 C   0  0  0  0  0  0  0  0  0  0  0  0
   10.0417   -2.5250    0.0000 C   0  0  0  0  0  0  0  0  0  0  0  0
    5.3792    0.1708    0.0000 C   0  0  0  0  0  0  0  0  0  0  0  0
    3.8042   -4.6292    0.0000 N   0  0  0  0  0  0  0  0  0  0  0  0
    2.8917   -2.4917    0.0000 N   0  0  0  0  0  0  0  0  0  0  0  0
    5.5500    0.8083    0.0000 N   0  0  0  0  0  0  0  0  0  0  0  0
    9.0750   -0.3000    0.0000 N   0  0  0  0  0  0  0  0  0  0  0  0
    1.8167   -1.4667    0.0000 N   0  0  0  0  0  0  0  0  0  0  0  0
    8.3500   -1.0792    0.0000 C   0  0  0  0  0  0  0  0  0  0  0  0
    9.1250   -1.5250    0.0000 C   0  0  0  0  0  0  0  0  0  0  0  0
   10.3125   -7.8000    0.0000 C   0  0  0  0  0  0  0  0  0  0  0  0
    9.5917   -8.2042    0.0000 O   0  0  0  0  0  0  0  0  0  0  0  0
   13.0667   -4.2417    0.0000 C   0  0  0  0  0  0  0  0  0  0  0  0
   12.5250   -2.6000    0.0000 C   0  0  0  0  0  0  0  0  0  0  0  0
    6.0250   -7.7917    0.0000 C   0  0  0  0  0  0  0  0  0  0  0  0
   11.3417   -2.4667    0.0000 C   0  0  0  0  0  0  0  0  0  0  0  0
  1  2  1  6  0  0  0
  3  1  1  6  0  0  0
  4  1  1  6  0  0  0
  5  1  1  6  0  0  0
  6  1  1  0  0  0  0
  7  3  1  0  0  0  0
  8 23  1  0  0  0  0
  9 18  1  0  0  0  0
 10  5  1  0  0  0  0
 11  6  1  0  0  0  0
 12  4  1  0  0  0  0
 13  3  2  0  0  0  0
 14  4  2  0  0  0  0
 15  6  1  0  0  0  0
 16  2  1  0  0  0  0
 17  8  1  0  0  0  0
 18 41  1  0  0  0  0
 19  5  2  0  0  0  0
 20 10  2  0  0  0  0
 21 11  2  0  0  0  0
 22 45  1  0  0  0  0
 23  2  2  0  0  0  0
 24 11  1  0  0  0  0
 25  7  1  0  0  0  0
 26 16  2  0  0  0  0
 27  1  1  0  0  0  0
 28  9  1  0  0  0  0
 29 10  1  0  0  0  0
 30 19  1  0  0  0  0
 31 33  1  0  0  0  0
 32 28  2  0  0  0  0
 33 17  1  0  0  0  0
 34 13  1  0  0  0  0
 35 42  2  0  0  0  0
 36 15  1  0  0  0  0
 37 27  1  6  0  0  0
 38 46  1  0  0  0  0
 39 12  1  0  0  0  0
 40 14  1  0  0  0  0
 41 37  1  0  0  0  0
 42  9  1  0  0  0  0
 43 17  1  0  0  0  0
 44 19  1  0  0  0  0
 31 45  1  1  0  0  0
 46 37  1  0  0  0  0
 47 43  1  0  0  0  0
 48 16  1  0  0  0  0
 49 22  1  0  0  0  0
 50 26  1  0  0  0  0
 51 32  1  0  0  0  0
 52 28  1  0  0  0  0
 53 69  1  0  0  0  0
 54 24  1  0  0  0  0
 55 56  1  0  0  0  0
 56 83  1  0  0  0  0
 57 25  1  0  0  0  0
 58 29  1  0  0  0  0
 59 22  1  0  0  0  0
 60 34  1  0  0  0  0
 61 40  1  0  0  0  0
 62 48  2  0  0  0  0
 63 62  1  0  0  0  0
 64 22  2  0  0  0  0
 65 44  1  0  0  0  0
 66 36  1  0  0  0  0
 67 57  1  0  0  0  0
 68 58  1  0  0  0  0
 69 52  2  0  0  0  0
 70 66  1  0  0  0  0
 71 86  1  0  0  0  0
 72 85  1  0  0  0  0
 73 87  1  0  0  0  0
 74 56  2  0  0  0  0
 75 67  2  0  0  0  0
 76 70  2  0  0  0  0
 77 68  2  0  0  0  0
 33 78  1  1  0  0  0
 79 71  2  0  0  0  0
 80 72  2  0  0  0  0
 38 81  1  1  0  0  0
 82  7  1  0  0  0  0
 83 54  1  0  0  0  0
 84 92  2  0  0  0  0
 85 60  1  0  0  0  0
 86 65  1  0  0  0  0
 87 55  1  0  0  0  0
 88 21  1  0  0  0  0
 89 20  1  0  0  0  0
 90 51  1  0  0  0  0
 46 91  1  1  0  0  0
 92 95  1  0  0  0  0
 93 24  1  0  0  0  0
 94 25  1  0  0  0  0
 95 61  1  0  0  0  0
 96 29  1  0  0  0  0
 97 70  1  0  0  0  0
 98 67  1  0  0  0  0
 99 68  1  0  0  0  0
100 71  1  0  0  0  0
101 72  1  0  0  0  0
102 39  1  0  0  0  0
103 39  1  0  0  0  0
 47104  1  6  0  0  0
105104  1  0  0  0  0
106 63  1  0  0  0  0
107 62  1  0  0  0  0
108 73  1  0  0  0  0
109 92  1  0  0  0  0
  7 15  1  0  0  0  0
 36 24  1  0  0  0  0
 14 21  1  0  0  0  0
 44 29  1  0  0  0  0
 30 12  2  0  0  0  0
 13 20  1  0  0  0  0
 40 39  1  0  0  0  0
 34 25  1  0  0  0  0
  8 26  1  0  0  0  0
 18 38  1  0  0  0  0
 50 63  2  0  0  0  0
 31 47  1  0  0  0  0
 35 32  1  0  0  0  0
 51 53  2  0  0  0  0
 73 49  1  0  0  0  0
M  CHG  2   1   1  59  -1
M  END
> <#>
130

> <PLATE>
LAT002

> <ROW>
B

> <COL>
8

> <COORD>
B08

> <LATID>
LAT002B08

> <Supplier>
Microsource

> <Suplier_CAT#>
01500844

> <Name>
Cobalamine

> <Concentration_(mM)>
2.5

> <IC50_(µM)>
31

> <Yeast_Active?>
-

> <Pubchem_CID>
6323226

> <Description>
Vitamin B12

$$$$
