
  -ISIS-  08130814242D

 24 28  0  0  0  0  0  0  0  0999 V2000
    5.2292   -4.7792    0.0000 C   0  0  0  0  0  0  0  0  0  0  0  0
    4.7417   -5.4417    0.0000 C   0  0  0  0  0  0  0  0  0  0  0  0
    5.9042   -6.2875    0.0000 C   0  0  0  0  0  0  0  0  0  0  0  0
    6.0500   -4.8667    0.0000 C   0  0  0  0  0  0  0  0  0  0  0  0
    5.0792   -6.2000    0.0000 N   0  0  0  0  0  0  0  0  0  0  0  0
    6.3875   -5.6250    0.0000 N   0  0  3  0  0  0  0  0  0  0  0  0
    4.7417   -4.1125    0.0000 C   0  0  0  0  0  0  0  0  0  0  0  0
    6.3917   -6.9542    0.0000 N   0  0  0  0  0  0  0  0  0  0  0  0
    3.9625   -5.1917    0.0000 C   0  0  0  0  0  0  0  0  0  0  0  0
    3.9625   -4.3667    0.0000 C   0  0  0  0  0  0  0  0  0  0  0  0
    7.1750   -5.8792    0.0000 N   0  0  0  0  0  0  0  0  0  0  0  0
    7.1792   -6.6917    0.0000 C   0  0  0  0  0  0  0  0  0  0  0  0
    6.5375   -4.1917    0.0000 C   0  0  0  0  0  0  0  0  0  0  0  0
    5.0000   -3.3250    0.0000 O   0  0  0  0  0  0  0  0  0  0  0  0
    7.3542   -4.2875    0.0000 C   0  0  0  0  0  0  0  0  0  0  0  0
    6.2000   -3.4417    0.0000 C   0  0  0  0  0  0  0  0  0  0  0  0
    7.5042   -2.8625    0.0000 C   0  0  0  0  0  0  0  0  0  0  0  0
    6.6875   -2.7750    0.0000 C   0  0  0  0  0  0  0  0  0  0  0  0
    7.8417   -3.6167    0.0000 C   0  0  0  0  0  0  0  0  0  0  0  0
    7.9917   -2.1917    0.0000 F   0  0  0  0  0  0  0  0  0  0  0  0
    3.2500   -5.6042    0.0000 C   0  0  0  0  0  0  0  0  0  0  0  0
    3.2500   -3.9542    0.0000 C   0  0  0  0  0  0  0  0  0  0  0  0
    2.5292   -4.3667    0.0000 C   0  0  0  0  0  0  0  0  0  0  0  0
    2.5292   -5.1917    0.0000 C   0  0  0  0  0  0  0  0  0  0  0  0
  2  1  1  0  0  0  0
  3  6  1  0  0  0  0
  4  1  2  0  0  0  0
  5  2  2  0  0  0  0
  6  4  1  0  0  0  0
  7  1  1  0  0  0  0
  8  3  2  0  0  0  0
  9  2  1  0  0  0  0
 10  7  1  0  0  0  0
 11  6  1  0  0  0  0
 12 11  2  0  0  0  0
 13  4  1  0  0  0  0
 14  7  2  0  0  0  0
 15 13  2  0  0  0  0
 16 13  1  0  0  0  0
 17 18  1  0  0  0  0
 18 16  2  0  0  0  0
 19 15  1  0  0  0  0
 20 17  1  0  0  0  0
 21  9  2  0  0  0  0
 22 10  2  0  0  0  0
 23 22  1  0  0  0  0
 24 21  1  0  0  0  0
 10  9  1  0  0  0  0
  5  3  1  0  0  0  0
 19 17  2  0  0  0  0
  8 12  1  0  0  0  0
 23 24  2  0  0  0  0
M  END
> <#>
1723

> <PLATE>
LAT022

> <ROW>
C

> <COL>
7

> <COORD>
C07

> <LATID>
LAT022C07

> <Supplier>
Chembridge

> <Suplier_CAT#>
7220507

> <Name>
Novel

> <Concentration_(mM)>
2.5

> <IC50_(µM)>
inactive

> <Yeast_Active?>
-

> <Pubchem_CID>
709989

$$$$
