
  -ISIS-  08130814242D

 22 24  0  0  0  0  0  0  0  0999 V2000
    0.4042   -3.3042    0.0000 C   0  0  0  0  0  0  0  0  0  0  0  0
   -1.2958   -2.3500    0.0000 N   0  0  0  0  0  0  0  0  0  0  0  0
   -2.1333   -0.9042    0.0000 N   0  0  3  0  0  0  0  0  0  0  0  0
   -0.4500   -2.8292    0.0000 C   0  0  0  0  0  0  0  0  0  0  0  0
   -0.7333   -2.3500    0.0000 N   0  0  0  0  0  0  0  0  0  0  0  0
    0.9500   -3.3042    0.0000 C   0  0  0  0  0  0  0  0  0  0  0  0
    0.1042   -2.8042    0.0000 C   0  0  0  0  0  0  0  0  0  0  0  0
   -1.5708   -1.8667    0.0000 C   0  0  0  0  0  0  0  0  0  0  0  0
   -0.7333   -3.3042    0.0000 O   0  0  0  0  0  0  0  0  0  0  0  0
   -1.2958   -1.3875    0.0000 C   0  0  0  0  0  0  0  0  0  0  0  0
   -2.1333   -1.8667    0.0000 C   0  0  0  0  0  0  0  0  0  0  0  0
   -1.5708   -0.9042    0.0000 C   0  0  0  0  0  0  0  0  0  0  0  0
   -2.4125   -1.3875    0.0000 C   0  0  0  0  0  0  0  0  0  0  0  0
    1.2292   -3.7875    0.0000 C   0  0  0  0  0  0  0  0  0  0  0  0
    0.1292   -3.7875    0.0000 C   0  0  0  0  0  0  0  0  0  0  0  0
   -2.4125   -0.4042    0.0000 C   0  0  0  0  0  0  0  0  0  0  0  0
    0.4042   -4.2667    0.0000 C   0  0  0  0  0  0  0  0  0  0  0  0
    1.2292   -2.8292    0.0000 C   0  0  0  0  0  0  0  0  0  0  0  0
    0.9667   -4.2667    0.0000 C   0  0  0  0  0  0  0  0  0  0  0  0
    1.7875   -3.7875    0.0000 C   0  0  0  0  0  0  0  0  0  0  0  0
    1.7875   -2.8292    0.0000 C   0  0  0  0  0  0  0  0  0  0  0  0
    2.0667   -3.3042    0.0000 C   0  0  0  0  0  0  0  0  0  0  0  0
  2  5  1  0  0  0  0
  3 13  1  0  0  0  0
  4  7  1  0  0  0  0
  5  4  1  0  0  0  0
  6  1  2  0  0  0  0
  7  1  1  0  0  0  0
  8  2  2  0  0  0  0
  9  4  2  0  0  0  0
 10  8  1  0  0  0  0
 11  8  1  0  0  0  0
 12 10  1  0  0  0  0
 13 11  1  0  0  0  0
 14  6  1  0  0  0  0
 15  1  1  0  0  0  0
 16  3  1  0  0  0  0
 17 15  2  0  0  0  0
 18  6  1  0  0  0  0
 19 17  1  0  0  0  0
 20 14  1  0  0  0  0
 21 18  2  0  0  0  0
 22 21  1  0  0  0  0
 14 19  2  0  0  0  0
 22 20  2  0  0  0  0
  3 12  1  0  0  0  0
M  END
> <#>
1837

> <PLATE>
LAT023

> <ROW>
E

> <COL>
11

> <COORD>
E11

> <LATID>
LAT023E11

> <Supplier>
Chembridge

> <Suplier_CAT#>
5689975

> <Name>
Novel

> <Sec_Name>
220_H02

> <Concentration_(mM)>
2.5

> <IC50_(µM)>
6

> <Yeast_Active?>
-

> <Pubchem_CID>
868137

$$$$
