
  -ISIS-  08130814242D

 27 30  0  0  0  0  0  0  0  0999 V2000
    2.9542   -3.4667    0.0000 C   0  0  0  0  0  0  0  0  0  0  0  0
    1.7167   -3.4667    0.0000 C   0  0  0  0  0  0  0  0  0  0  0  0
    2.9542   -4.1875    0.0000 C   0  0  0  0  0  0  0  0  0  0  0  0
    2.3375   -3.1292    0.0000 C   0  0  3  0  0  0  0  0  0  0  0  0
    1.7167   -4.1875    0.0000 C   0  0  0  0  0  0  0  0  0  0  0  0
    3.5792   -3.1042    0.0000 C   0  0  0  0  0  0  0  0  0  0  0  0
    2.3375   -4.5292    0.0000 N   0  0  0  0  0  0  0  0  0  0  0  0
    1.1167   -3.1292    0.0000 C   0  0  0  0  0  0  0  0  0  0  0  0
    4.2000   -3.4667    0.0000 O   0  0  0  0  0  0  0  0  0  0  0  0
    2.3375   -1.8875    0.0000 C   0  0  0  0  0  0  0  0  0  0  0  0
    3.5792   -2.4042    0.0000 O   0  0  0  0  0  0  0  0  0  0  0  0
    1.1167   -2.4042    0.0000 O   0  0  0  0  0  0  0  0  0  0  0  0
    2.9500   -1.5167    0.0000 C   0  0  0  0  0  0  0  0  0  0  0  0
    1.7000   -1.5167    0.0000 C   0  0  0  0  0  0  0  0  0  0  0  0
    1.1167   -4.5292    0.0000 C   0  0  0  0  0  0  0  0  0  0  0  0
    2.3375   -0.4500    0.0000 C   0  0  0  0  0  0  0  0  0  0  0  0
    3.5792   -4.5500    0.0000 C   0  0  0  0  0  0  0  0  0  0  0  0
    1.7000   -0.8167    0.0000 C   0  0  0  0  0  0  0  0  0  0  0  0
    2.9500   -0.8167    0.0000 C   0  0  0  0  0  0  0  0  0  0  0  0
    2.3500    0.2958    0.0000 Br  0  0  0  0  0  0  0  0  0  0  0  0
    4.8500   -3.1000    0.0000 C   0  0  3  0  0  0  0  0  0  0  0  0
    0.5000   -3.4667    0.0000 C   0  0  0  0  0  0  0  0  0  0  0  0
    0.5000   -4.1875    0.0000 C   0  0  0  0  0  0  0  0  0  0  0  0
    5.5292   -3.4000    0.0000 C   0  0  0  0  0  0  0  0  0  0  0  0
    4.9292   -2.3500    0.0000 C   0  0  0  0  0  0  0  0  0  0  0  0
    5.6542   -2.2000    0.0000 C   0  0  0  0  0  0  0  0  0  0  0  0
    6.0375   -2.8500    0.0000 C   0  0  0  0  0  0  0  0  0  0  0  0
  2  4  1  0  0  0  0
  3  1  2  0  0  0  0
  4  1  1  0  0  0  0
  5  2  2  0  0  0  0
  6  1  1  0  0  0  0
  7  3  1  0  0  0  0
  8  2  1  0  0  0  0
  9  6  1  0  0  0  0
 10  4  1  0  0  0  0
 11  6  2  0  0  0  0
 12  8  2  0  0  0  0
 13 10  2  0  0  0  0
 14 10  1  0  0  0  0
 15  5  1  0  0  0  0
 16 18  1  0  0  0  0
 17  3  1  0  0  0  0
 18 14  2  0  0  0  0
 19 13  1  0  0  0  0
 20 16  1  0  0  0  0
 21  9  1  0  0  0  0
 22  8  1  0  0  0  0
 23 22  1  0  0  0  0
 24 21  1  0  0  0  0
 25 21  1  0  0  0  0
 26 25  1  0  0  0  0
 27 24  1  0  0  0  0
  5  7  1  0  0  0  0
 19 16  2  0  0  0  0
 26 27  1  0  0  0  0
 15 23  1  0  0  0  0
M  END
> <#>
772

> <PLATE>
LAT010

> <ROW>
D

> <COL>
8

> <COORD>
D08

> <LATID>
LAT010D08

> <Supplier>
Chembridge

> <Suplier_CAT#>
5616249

> <Name>
Novel

> <Sec_Name>
185_B10

> <Concentration_(mM)>
2.5

> <IC50_(µM)>
>100

> <Yeast_Active?>
-

> <Pubchem_CID>
NULL

$$$$
