
  -ISIS-  08130814242D

 20 21  0  0  0  0  0  0  0  0999 V2000
   14.6167    0.6458    0.0000 S   0  0  3  0  0  0  0  0  0  0  0  0
   15.3667    0.6333    0.0000 N   0  0  0  0  0  0  0  0  0  0  0  0
   13.8667    0.6458    0.0000 C   0  0  0  0  0  0  0  0  0  0  0  0
   14.6167    1.3958    0.0000 O   0  0  0  0  0  0  0  0  0  0  0  0
   14.6167   -0.0917    0.0000 O   0  0  0  0  0  0  0  0  0  0  0  0
   15.7500    2.5833    0.0000 C   0  0  0  0  0  0  0  0  0  0  0  0
   15.3792    1.9333    0.0000 C   0  0  0  0  0  0  0  0  0  0  0  0
   15.7500    1.2833    0.0000 C   0  0  0  0  0  0  0  0  0  0  0  0
   16.5000    2.5833    0.0000 C   0  0  0  0  0  0  0  0  0  0  0  0
   13.5000    1.2958    0.0000 C   0  0  0  0  0  0  0  0  0  0  0  0
   13.5000    0.0000    0.0000 C   0  0  0  0  0  0  0  0  0  0  0  0
   16.8792    1.9333    0.0000 C   0  0  0  0  0  0  0  0  0  0  0  0
   15.3792    3.2333    0.0000 F   0  0  0  0  0  0  0  0  0  0  0  0
   16.5000    1.2833    0.0000 C   0  0  0  0  0  0  0  0  0  0  0  0
   16.8792    3.2333    0.0000 F   0  0  0  0  0  0  0  0  0  0  0  0
   12.3667    0.6458    0.0000 C   0  0  0  0  0  0  0  0  0  0  0  0
   12.7500    0.0000    0.0000 C   0  0  0  0  0  0  0  0  0  0  0  0
   12.7500    1.2958    0.0000 C   0  0  0  0  0  0  0  0  0  0  0  0
   11.6167    0.6458    0.0000 O   0  0  0  0  0  0  0  0  0  0  0  0
   11.2500    1.2833    0.0000 C   0  0  0  0  0  0  0  0  0  0  0  0
  2  1  1  0  0  0  0
  3  1  1  0  0  0  0
  4  1  2  0  0  0  0
  5  1  2  0  0  0  0
  6  7  2  0  0  0  0
  7  8  1  0  0  0  0
  8  2  1  0  0  0  0
  9 12  2  0  0  0  0
 10  3  2  0  0  0  0
 11  3  1  0  0  0  0
 12 14  1  0  0  0  0
 13  6  1  0  0  0  0
 14  8  2  0  0  0  0
 15  9  1  0  0  0  0
 16 17  1  0  0  0  0
 17 11  2  0  0  0  0
 18 10  1  0  0  0  0
 19 16  1  0  0  0  0
 20 19  1  0  0  0  0
 18 16  2  0  0  0  0
  6  9  1  0  0  0  0
M  END
> <#>
703

> <PLATE>
LAT009

> <ROW>
G

> <COL>
9

> <COORD>
G09

> <LATID>
LAT009G09

> <Supplier>
Chembridge

> <Suplier_CAT#>
5538252

> <Name>
Novel

> <Sec_Name>
157_E07

> <Concentration_(mM)>
2.5

> <IC50_(µM)>
60

> <Yeast_Active?>
-

> <Pubchem_CID>
798896

$$$$
