
  -ISIS-  08130814242D

 45 46  0  0  0  0  0  0  0  0999 V2000
   -2.5059   -0.2106    0.0000 C   0  0  0  0  0  0  0  0  0  0  0  0
   -2.4438    0.3808    0.0000 C   0  0  1  0  0  0  0  0  0  0  0  0
   -2.8857    0.7787    0.0000 C   0  0  1  0  0  0  0  0  0  0  0  0
   -2.6438    1.3220    0.0000 C   0  0  3  0  0  0  0  0  0  0  0  0
   -2.0524    1.2598    0.0000 C   0  0  1  0  0  0  0  0  0  0  0  0
   -1.9288    0.6781    0.0000 O   0  0  0  0  0  0  0  0  0  0  0  0
   -1.6545    1.7018    0.0000 O   0  0  0  0  0  0  0  0  0  0  0  0
   -1.0800    1.5479    0.0000 C   0  0  2  0  0  0  0  0  0  0  0  0
   -0.6595    1.9684    0.0000 C   0  0  2  0  0  0  0  0  0  0  0  0
   -0.0851    1.8145    0.0000 C   0  0  1  0  0  0  0  0  0  0  0  0
    0.0688    1.2400    0.0000 C   0  0  2  0  0  0  0  0  0  0  0  0
   -0.3517    0.8195    0.0000 C   0  0  1  0  0  0  0  0  0  0  0  0
   -0.9261    0.9734    0.0000 C   0  0  1  0  0  0  0  0  0  0  0  0
   -1.3466    0.5529    0.0000 O   0  0  0  0  0  0  0  0  0  0  0  0
   -0.1978    0.2451    0.0000 O   0  0  0  0  0  0  0  0  0  0  0  0
    0.6433    1.0861    0.0000 N   0  0  0  0  0  0  0  0  0  0  0  0
    0.7972    0.5117    0.0000 C   0  0  0  0  0  0  0  0  0  0  0  0
    0.3767    0.0912    0.0000 N   0  0  0  0  0  0  0  0  0  0  0  0
    1.3716    0.3578    0.0000 N   0  0  0  0  0  0  0  0  0  0  0  0
    0.3354    2.2350    0.0000 O   0  0  0  0  0  0  0  0  0  0  0  0
   -0.8134    2.5428    0.0000 N   0  0  0  0  0  0  0  0  0  0  0  0
   -0.3929    2.9633    0.0000 C   0  0  0  0  0  0  0  0  0  0  0  0
   -0.5468    3.5377    0.0000 N   0  0  0  0  0  0  0  0  0  0  0  0
    0.1815    2.8094    0.0000 N   0  0  0  0  0  0  0  0  0  0  0  0
   -2.9412    1.8370    0.0000 O   0  0  0  0  0  0  0  0  0  0  0  0
   -3.5359    1.8370    0.0000 C   0  0  1  0  0  0  0  0  0  0  0  0
   -3.8332    2.3520    0.0000 C   0  0  2  0  0  0  0  0  0  0  0  0
   -4.4279    2.3520    0.0000 C   0  0  1  0  0  0  0  0  0  0  0  0
   -4.7253    1.8370    0.0000 C   0  0  2  0  0  0  0  0  0  0  0  0
   -4.4279    1.3220    0.0000 C   0  0  1  0  0  0  0  0  0  0  0  0
   -3.8332    1.3220    0.0000 O   0  0  0  0  0  0  0  0  0  0  0  0
   -4.7253    0.8070    0.0000 C   0  0  0  0  0  0  0  0  0  0  0  0
   -5.3200    0.8070    0.0000 O   0  0  0  0  0  0  0  0  0  0  0  0
   -5.3200    1.8370    0.0000 O   0  0  0  0  0  0  0  0  0  0  0  0
   -4.7253    2.8671    0.0000 O   0  0  0  0  0  0  0  0  0  0  0  0
   -3.5359    2.8671    0.0000 N   0  0  0  0  0  0  0  0  0  0  0  0
   -3.8332    3.3821    0.0000 C   0  0  0  0  0  0  0  0  0  0  0  0
   -3.2353    0.2976    0.0000 C   0  0  0  0  0  0  0  0  0  0  0  0
   -2.9934   -0.2457    0.0000 O   0  0  0  0  0  0  0  0  0  0  0  0
   -3.4007    1.0761    0.0000 O   0  0  0  0  0  0  0  0  0  0  0  0
   -1.4272   -1.3579    0.0000 O   0  0  0  0  0  0  0  0  0  0  0  0
   -1.4272   -0.7632    0.0000 S   0  0  3  0  0  0  0  0  0  0  0  0
   -2.0219   -0.7632    0.0000 O   0  0  0  0  0  0  0  0  0  0  0  0
   -0.8325   -0.7632    0.0000 O   0  0  0  0  0  0  0  0  0  0  0  0
   -1.4272   -0.1685    0.0000 O   0  0  0  0  0  0  0  0  0  0  0  0
  4  5  1  0  0  0  0
  5  6  1  0  0  0  0
  2  6  1  0  0  0  0
  5  7  1  6  0  0  0
  8  7  1  6  0  0  0
  8  9  1  0  0  0  0
  9 10  1  0  0  0  0
 10 11  1  0  0  0  0
 11 12  1  0  0  0  0
 12 13  1  0  0  0  0
  8 13  1  0  0  0  0
 13 14  1  1  0  0  0
 12 15  1  6  0  0  0
 11 16  1  1  0  0  0
 16 17  2  0  0  0  0
 17 18  1  0  0  0  0
 17 19  1  0  0  0  0
 10 20  1  6  0  0  0
  9 21  1  1  0  0  0
 21 22  2  0  0  0  0
 22 23  1  0  0  0  0
 22 24  1  0  0  0  0
  4 25  1  0  0  0  0
 26 25  1  6  0  0  0
 26 27  1  0  0  0  0
 27 28  1  0  0  0  0
 28 29  1  0  0  0  0
 29 30  1  0  0  0  0
 30 31  1  0  0  0  0
 26 31  1  0  0  0  0
 30 32  1  1  0  0  0
 32 33  1  0  0  0  0
 29 34  1  6  0  0  0
 28 35  1  1  0  0  0
 27 36  1  6  0  0  0
 36 37  1  0  0  0  0
  3 38  1  6  0  0  0
 38 39  2  0  0  0  0
  3 40  1  1  0  0  0
  2  1  1  1  0  0  0
  2  3  1  0  0  0  0
  3  4  1  0  0  0  0
 41 42  1  0  0  0  0
 42 43  2  0  0  0  0
 42 44  2  0  0  0  0
 42 45  1  0  0  0  0
M  END
> <#>
404

> <PLATE>
LAT006

> <ROW>
D

> <COL>
2

> <COORD>
D02

> <LATID>
LAT006D02

> <Supplier>
Sigma

> <Suplier_CAT#>
S-6501

> <Name>
Streptomycin Sulfate

> <Concentration_(mM)>
2.5

> <IC50_(µM)>
>100

> <Yeast_Active?>
-

> <Pubchem_CID>
5702119

$$$$
