
  -ISIS-  08130814242D

 20 21  0  0  0  0  0  0  0  0999 V2000
    1.3542   -0.4417    0.0000 S   0  0  3  0  0  0  0  0  0  0  0  0
    0.5292   -0.4500    0.0000 C   0  0  0  0  0  0  0  0  0  0  0  0
    0.1250   -1.1667    0.0000 C   0  0  0  0  0  0  0  0  0  0  0  0
    0.1125    0.2708    0.0000 C   0  0  0  0  0  0  0  0  0  0  0  0
    2.1792   -0.4417    0.0000 N   0  0  0  0  0  0  0  0  0  0  0  0
   -0.7000   -1.1667    0.0000 C   0  0  0  0  0  0  0  0  0  0  0  0
   -0.7125    0.2583    0.0000 C   0  0  0  0  0  0  0  0  0  0  0  0
    1.3542    0.3833    0.0000 O   0  0  0  0  0  0  0  0  0  0  0  0
    1.3625   -1.2667    0.0000 O   0  0  0  0  0  0  0  0  0  0  0  0
   -1.1208   -0.4542    0.0000 C   0  0  0  0  0  0  0  0  0  0  0  0
    3.8250   -0.4417    0.0000 N   0  0  0  0  0  0  0  0  0  0  0  0
    2.5875    0.2750    0.0000 C   0  0  0  0  0  0  0  0  0  0  0  0
    3.4167    0.2750    0.0000 C   0  0  0  0  0  0  0  0  0  0  0  0
    0.5167    0.9833    0.0000 Br  0  0  0  0  0  0  0  0  0  0  0  0
   -1.1125   -1.8875    0.0000 C   0  0  0  0  0  0  0  0  0  0  0  0
   -1.9458   -0.4625    0.0000 C   0  0  0  0  0  0  0  0  0  0  0  0
    4.6500   -0.4417    0.0000 C   0  0  0  0  0  0  0  0  0  0  0  0
    3.8250    0.9875    0.0000 C   0  0  0  0  0  0  0  0  0  0  0  0
    5.0667    0.2750    0.0000 C   0  0  0  0  0  0  0  0  0  0  0  0
    4.6417    0.9958    0.0000 C   0  0  0  0  0  0  0  0  0  0  0  0
  2  1  1  0  0  0  0
  3  2  2  0  0  0  0
  4  2  1  0  0  0  0
  5  1  1  0  0  0  0
  6  3  1  0  0  0  0
  7  4  2  0  0  0  0
  8  1  2  0  0  0  0
  9  1  2  0  0  0  0
 10  7  1  0  0  0  0
 11 13  2  0  0  0  0
 12  5  1  0  0  0  0
 13 12  1  0  0  0  0
 14  4  1  0  0  0  0
 15  6  1  0  0  0  0
 16 10  1  0  0  0  0
 17 11  1  0  0  0  0
 18 13  1  0  0  0  0
 19 20  1  0  0  0  0
 20 18  2  0  0  0  0
 10  6  2  0  0  0  0
 17 19  2  0  0  0  0
M  END
> <#>
1951

> <PLATE>
LAT025

> <ROW>
G

> <COL>
5

> <COORD>
G05

> <LATID>
LAT025G05

> <Supplier>
Chembridge

> <Suplier_CAT#>
7504997

> <Name>
Novel

> <Concentration_(mM)>
2.5

> <IC50_(µM)>
>100

> <Yeast_Active?>
-

> <Pubchem_CID>
1314756

$$$$
