
  -ISIS-  08130814242D

 20 21  0  0  0  0  0  0  0  0999 V2000
    2.4417    4.1917    0.0000 C   0  0  0  0  0  0  0  0  0  0  0  0
    3.6542    4.9042    0.0000 C   0  0  0  0  0  0  0  0  0  0  0  0
    4.8792    4.2125    0.0000 C   0  0  0  0  0  0  0  0  0  0  0  0
    6.0875    4.9167    0.0000 C   0  0  0  0  0  0  0  0  0  0  0  0
    1.2375    4.8917    0.0000 C   0  0  0  0  0  0  0  0  0  0  0  0
    2.4417    2.7958    0.0000 C   0  0  0  0  0  0  0  0  0  0  0  0
    3.6542    6.3042    0.0000 O   0  0  0  0  0  0  0  0  0  0  0  0
    6.0792    6.3167    0.0000 O   0  0  0  0  0  0  0  0  0  0  0  0
    7.3042    4.2167    0.0000 C   0  0  0  0  0  0  0  0  0  0  0  0
    0.0292    4.1917    0.0000 C   0  0  0  0  0  0  0  0  0  0  0  0
    1.2292    2.1000    0.0000 C   0  0  0  0  0  0  0  0  0  0  0  0
    0.0167    2.8083    0.0000 C   0  0  0  0  0  0  0  0  0  0  0  0
    1.2292    6.2917    0.0000 O   0  0  0  0  0  0  0  0  0  0  0  0
    1.2167    0.6958    0.0000 O   0  0  0  0  0  0  0  0  0  0  0  0
    8.5125    4.9042    0.0000 C   0  0  0  0  0  0  0  0  0  0  0  0
    7.2917    2.8333    0.0000 C   0  0  0  0  0  0  0  0  0  0  0  0
    0.0000    0.0000    0.0000 C   0  0  0  0  0  0  0  0  0  0  0  0
    9.7167    4.2125    0.0000 C   0  0  0  0  0  0  0  0  0  0  0  0
    8.5000    2.1208    0.0000 C   0  0  0  0  0  0  0  0  0  0  0  0
    9.7167    2.8125    0.0000 C   0  0  0  0  0  0  0  0  0  0  0  0
  2  1  1  0  0  0  0
  3  2  1  0  0  0  0
  4  3  1  0  0  0  0
  5  1  2  0  0  0  0
  6  1  1  0  0  0  0
  7  2  2  0  0  0  0
  8  4  2  0  0  0  0
  9  4  1  0  0  0  0
 10  5  1  0  0  0  0
 11  6  2  0  0  0  0
 12 11  1  0  0  0  0
 13  5  1  0  0  0  0
 14 11  1  0  0  0  0
 15  9  1  0  0  0  0
 16  9  2  0  0  0  0
 17 14  1  0  0  0  0
 18 15  2  0  0  0  0
 19 16  1  0  0  0  0
 20 19  2  0  0  0  0
 12 10  2  0  0  0  0
 20 18  1  0  0  0  0
M  END
> <#>
1218

> <PLATE>
LAT016

> <ROW>
B

> <COL>
4

> <COORD>
B04

> <LATID>
LAT016B04

> <Supplier>
Chembridge

> <Suplier_CAT#>
5967686

> <Name>
Novel

> <Concentration_(mM)>
2.5

> <IC50_(µM)>
>100

> <Yeast_Active?>
-

> <Pubchem_CID>
776118

$$$$
