
  -ISIS-  08130814242D

 20 23  0  0  0  0  0  0  0  0999 V2000
    7.7792    2.0708    0.0000 N   0  0  3  0  0  0  0  0  0  0  0  0
    7.7792    3.5000    0.0000 C   0  0  0  0  0  0  0  0  0  0  0  0
    8.9667    1.3833    0.0000 C   0  0  0  0  0  0  0  0  0  0  0  0
    6.4542    1.6333    0.0000 N   0  0  0  0  0  0  0  0  0  0  0  0
   10.2000    2.0708    0.0000 C   0  0  0  0  0  0  0  0  0  0  0  0
    8.9667    4.1875    0.0000 N   0  0  0  0  0  0  0  0  0  0  0  0
    6.4542    3.8958    0.0000 C   0  0  0  0  0  0  0  0  0  0  0  0
    5.6167    2.7708    0.0000 C   0  0  0  0  0  0  0  0  0  0  0  0
   10.2000    3.5000    0.0000 C   0  0  0  0  0  0  0  0  0  0  0  0
    4.1875    2.7708    0.0000 C   0  0  0  0  0  0  0  0  0  0  0  0
    8.9667    0.0000    0.0000 O   0  0  0  0  0  0  0  0  0  0  0  0
    3.4917    1.5833    0.0000 C   0  0  0  0  0  0  0  0  0  0  0  0
    3.4917    3.9958    0.0000 C   0  0  0  0  0  0  0  0  0  0  0  0
   11.5292    1.6333    0.0000 C   0  0  0  0  0  0  0  0  0  0  0  0
    1.4250    2.7708    0.0000 C   0  0  0  0  0  0  0  0  0  0  0  0
    2.1167    1.5833    0.0000 C   0  0  0  0  0  0  0  0  0  0  0  0
    2.1167    3.9958    0.0000 C   0  0  0  0  0  0  0  0  0  0  0  0
   11.5292    3.8958    0.0000 C   0  0  0  0  0  0  0  0  0  0  0  0
    0.0000    2.7708    0.0000 I   0  0  0  0  0  0  0  0  0  0  0  0
   12.3667    2.7708    0.0000 C   0  0  0  0  0  0  0  0  0  0  0  0
  2  1  1  0  0  0  0
  3  1  1  0  0  0  0
  4  1  1  0  0  0  0
  5  3  2  0  0  0  0
  6  2  1  0  0  0  0
  7  2  2  0  0  0  0
  8  4  2  0  0  0  0
  9  5  1  0  0  0  0
 10  8  1  0  0  0  0
 11  3  1  0  0  0  0
 12 10  1  0  0  0  0
 13 10  2  0  0  0  0
 14  5  1  0  0  0  0
 15 17  2  0  0  0  0
 16 12  2  0  0  0  0
 17 13  1  0  0  0  0
 18  9  1  0  0  0  0
 19 15  1  0  0  0  0
 20 14  1  0  0  0  0
  8  7  1  0  0  0  0
  6  9  2  0  0  0  0
 18 20  1  0  0  0  0
 15 16  1  0  0  0  0
M  END
> <#>
1080

> <PLATE>
LAT014

> <ROW>
H

> <COL>
6

> <COORD>
H06

> <LATID>
LAT014H06

> <Supplier>
Chembridge

> <Suplier_CAT#>
5844829

> <Name>
Novel

> <Concentration_(mM)>
2.5

> <IC50_(µM)>
inactive

> <Yeast_Active?>
-

> <Pubchem_CID>
NULL

$$$$
