
  -ISIS-  08130814242D

 31 34  0  0  0  0  0  0  0  0999 V2000
    4.1875   -1.0542    0.0000 C   0  0  0  0  0  0  0  0  0  0  0  0
    3.2542   -1.7292    0.0000 N   0  0  3  0  0  0  0  0  0  0  0  0
    3.9667   -1.7292    0.0000 C   0  0  0  0  0  0  0  0  0  0  0  0
    3.0500   -1.0500    0.0000 N   0  0  0  0  0  0  0  0  0  0  0  0
    3.6167   -0.6375    0.0000 C   0  0  0  0  0  0  0  0  0  0  0  0
    4.8667   -0.8375    0.0000 C   0  0  0  0  0  0  0  0  0  0  0  0
    6.9667   -2.7375    0.0000 N   0  0  3  0  0  0  0  0  0  0  0  0
    2.8375   -2.2875    0.0000 C   0  0  0  0  0  0  0  0  0  0  0  0
    1.5667   -4.0000    0.0000 C   0  0  0  0  0  0  0  0  0  0  0  0
    4.3875   -2.3042    0.0000 O   0  0  0  0  0  0  0  0  0  0  0  0
    6.4375   -2.2667    0.0000 C   0  0  0  0  0  0  0  0  0  0  0  0
    3.6292    0.0500    0.0000 O   0  0  0  0  0  0  0  0  0  0  0  0
    2.0000   -3.4292    0.0000 C   0  0  0  0  0  0  0  0  0  0  0  0
    1.8542   -4.6500    0.0000 O   0  0  0  0  0  0  0  0  0  0  0  0
    3.1167   -2.9375    0.0000 C   0  0  0  0  0  0  0  0  0  0  0  0
    2.1292   -2.2042    0.0000 C   0  0  0  0  0  0  0  0  0  0  0  0
    1.7167   -2.7792    0.0000 C   0  0  0  0  0  0  0  0  0  0  0  0
    2.7000   -3.5042    0.0000 C   0  0  0  0  0  0  0  0  0  0  0  0
    5.3875   -1.3042    0.0000 C   0  0  0  0  0  0  0  0  0  0  0  0
    8.0167   -3.6875    0.0000 O   0  0  0  0  0  0  0  0  0  0  0  0
    5.7667   -2.4792    0.0000 C   0  0  0  0  0  0  0  0  0  0  0  0
    6.5875   -1.5667    0.0000 C   0  0  0  0  0  0  0  0  0  0  0  0
    0.8667   -3.9167    0.0000 O   0  0  0  0  0  0  0  0  0  0  0  0
    5.2375   -2.0042    0.0000 C   0  0  0  0  0  0  0  0  0  0  0  0
    6.0542   -1.1000    0.0000 C   0  0  0  0  0  0  0  0  0  0  0  0
    7.6375   -2.5292    0.0000 C   0  0  0  0  0  0  0  0  0  0  0  0
    6.8167   -3.4375    0.0000 C   0  0  0  0  0  0  0  0  0  0  0  0
    8.1542   -3.0000    0.0000 C   0  0  0  0  0  0  0  0  0  0  0  0
    7.3375   -3.9042    0.0000 C   0  0  0  0  0  0  0  0  0  0  0  0
    0.5875   -3.2667    0.0000 C   0  0  0  0  0  0  0  0  0  0  0  0
   -0.1000   -3.1875    0.0000 C   0  0  0  0  0  0  0  0  0  0  0  0
  2  3  1  0  0  0  0
  3  1  1  0  0  0  0
  4  5  1  0  0  0  0
  5  1  1  0  0  0  0
  6  1  2  0  0  0  0
  7 11  1  0  0  0  0
  8  2  1  0  0  0  0
  9 13  1  0  0  0  0
 10  3  2  0  0  0  0
 11 22  2  0  0  0  0
 12  5  2  0  0  0  0
 13 17  1  0  0  0  0
 14  9  2  0  0  0  0
 15  8  2  0  0  0  0
 16  8  1  0  0  0  0
 17 16  2  0  0  0  0
 18 15  1  0  0  0  0
 19  6  1  0  0  0  0
 20 29  1  0  0  0  0
 21 24  2  0  0  0  0
 22 25  1  0  0  0  0
 23  9  1  0  0  0  0
 24 19  1  0  0  0  0
 25 19  2  0  0  0  0
 26  7  1  0  0  0  0
 27  7  1  0  0  0  0
 28 26  1  0  0  0  0
 29 27  1  0  0  0  0
 30 23  1  0  0  0  0
 31 30  1  0  0  0  0
  4  2  1  0  0  0  0
 21 11  1  0  0  0  0
 13 18  2  0  0  0  0
 20 28  1  0  0  0  0
M  END
> <#>
1013

> <PLATE>
LAT013

> <ROW>
E

> <COL>
8

> <COORD>
E08

> <LATID>
LAT013E08

> <Supplier>
Chembridge

> <Suplier_CAT#>
5630588

> <Name>
Novel

> <Sec_Name>
192_E02

> <Concentration_(mM)>
2.5

> <IC50_(µM)>
inactive

> <Yeast_Active?>
-

> <Pubchem_CID>
1352937

$$$$
