
  -ISIS-  08130814242D

 19 20  0  0  0  0  0  0  0  0999 V2000
    1.2917   -0.6250    0.0000 C   0  0  0  0  0  0  0  0  0  0  0  0
    0.5792   -0.2125    0.0000 C   0  0  0  0  0  0  0  0  0  0  0  0
    2.0042   -0.2042    0.0000 C   0  0  0  0  0  0  0  0  0  0  0  0
    2.7250   -0.6167    0.0000 C   0  0  0  0  0  0  0  0  0  0  0  0
   -0.1333   -0.6250    0.0000 C   0  0  0  0  0  0  0  0  0  0  0  0
    1.2917   -1.4542    0.0000 C   0  0  0  0  0  0  0  0  0  0  0  0
    2.7250   -1.4417    0.0000 C   0  0  0  0  0  0  0  0  0  0  0  0
    2.0042    0.6208    0.0000 O   0  0  0  0  0  0  0  0  0  0  0  0
   -0.1333   -1.4542    0.0000 C   0  0  0  0  0  0  0  0  0  0  0  0
    3.4417   -1.8542    0.0000 C   0  0  0  0  0  0  0  0  0  0  0  0
    0.5750    0.6125    0.0000 O   0  0  0  0  0  0  0  0  0  0  0  0
    0.5792   -1.8667    0.0000 C   0  0  0  0  0  0  0  0  0  0  0  0
    4.8750   -2.6667    0.0000 C   0  0  0  0  0  0  0  0  0  0  0  0
    4.1500   -1.4375    0.0000 C   0  0  0  0  0  0  0  0  0  0  0  0
    3.4417   -2.6792    0.0000 C   0  0  0  0  0  0  0  0  0  0  0  0
    4.1542   -3.0875    0.0000 C   0  0  0  0  0  0  0  0  0  0  0  0
    4.8667   -1.8417    0.0000 C   0  0  0  0  0  0  0  0  0  0  0  0
   -0.8500   -1.8625    0.0000 O   0  0  0  0  0  0  0  0  0  0  0  0
    5.5875   -3.0792    0.0000 O   0  0  0  0  0  0  0  0  0  0  0  0
  2  1  2  0  0  0  0
  3  1  1  0  0  0  0
  4  3  1  0  0  0  0
  5  2  1  0  0  0  0
  6  1  1  0  0  0  0
  7  4  2  0  0  0  0
  8  3  2  0  0  0  0
  9 12  1  0  0  0  0
 10  7  1  0  0  0  0
 11  2  1  0  0  0  0
 12  6  2  0  0  0  0
 13 16  2  0  0  0  0
 14 10  1  0  0  0  0
 15 10  2  0  0  0  0
 16 15  1  0  0  0  0
 17 14  2  0  0  0  0
 18  9  1  0  0  0  0
 19 13  1  0  0  0  0
  5  9  2  0  0  0  0
 17 13  1  0  0  0  0
M  END
> <#>
27

> <PLATE>
LAT001

> <ROW>
C

> <COL>
5

> <COORD>
C05

> <LATID>
LAT001C05

> <Supplier>
Microsource

> <Suplier_CAT#>
01504200

> <Name>
Isoliquiritigenin

> <Concentration_(mM)>
2.5

> <IC50_(µM)>
52

> <Yeast_Active?>
-

> <Pubchem_CID>
425

> <Description>
Aldose Reductase Inhibitor, Antineoplastic, Antiinflammatory

> <Source>
widespread in Fabaceae

$$$$
