
  -ISIS-  08130814242D

 18 19  0  0  0  0  0  0  0  0999 V2000
   -7.1167    3.6708    0.0000 C   0  0  0  0  0  0  0  0  0  0  0  0
    6.0875    3.7708    0.0000 C   0  0  0  0  0  0  0  0  0  0  0  0
    9.2875    1.9000    0.0000 C   0  0  0  0  0  0  0  0  0  0  0  0
   12.5875    3.8708    0.0000 C   0  0  0  0  0  0  0  0  0  0  0  0
    2.7792    1.9000    0.0000 C   0  0  0  0  0  0  0  0  0  0  0  0
   -7.1167    7.4792    0.0000 N   0  0  0  0  0  0  0  0  0  0  0  0
  -10.3167    1.8000    0.0000 N   0  0  0  0  0  0  0  0  0  0  0  0
   -3.8125    1.8000    0.0000 S   0  0  0  0  0  0  0  0  0  0  0  0
   12.5875    7.2667    0.0000 C   0  0  0  0  0  0  0  0  0  0  0  0
   -0.5125    3.7708    0.0000 C   0  0  0  0  0  0  0  0  0  0  0  0
    6.0875    7.3792    0.0000 C   0  0  0  0  0  0  0  0  0  0  0  0
    2.7792   -1.9000    0.0000 O   0  0  0  0  0  0  0  0  0  0  0  0
    9.2875    9.2292    0.0000 C   0  0  0  0  0  0  0  0  0  0  0  0
   16.0000    2.2125    0.0000 O   0  0  0  0  0  0  0  0  0  0  0  0
   16.0000    8.9167    0.0000 O   0  0  0  0  0  0  0  0  0  0  0  0
  -13.6167    7.3792    0.0000 C   0  0  0  0  0  0  0  0  0  0  0  0
  -13.6167    3.7708    0.0000 C   0  0  0  0  0  0  0  0  0  0  0  0
  -10.3167    9.3375    0.0000 C   0  0  0  0  0  0  0  0  0  0  0  0
  2  5  1  0  0  0  0
  3  2  1  0  0  0  0
  4  3  2  0  0  0  0
  5 10  1  0  0  0  0
  6  1  1  0  0  0  0
  7  1  2  0  0  0  0
  8  1  1  0  0  0  0
  9 13  2  0  0  0  0
 10  8  1  0  0  0  0
 11  2  2  0  0  0  0
 12  5  2  0  0  0  0
 13 11  1  0  0  0  0
 14  4  1  0  0  0  0
 15  9  1  0  0  0  0
 16 17  2  0  0  0  0
 17  7  1  0  0  0  0
 18  6  2  0  0  0  0
 16 18  1  0  0  0  0
  9  4  1  0  0  0  0
M  END
> <#>
1367

> <PLATE>
LAT018

> <ROW>
G

> <COL>
2

> <COORD>
G02

> <LATID>
LAT018G02

> <Supplier>
Chembridge

> <Suplier_CAT#>
7116840

> <Name>
Novel

> <Concentration_(mM)>
2.5

> <IC50_(µM)>
inactive

> <Yeast_Active?>
-

> <Pubchem_CID>
805139

$$$$
