
  -ISIS-  08130814242D

 20 20  0  0  0  0  0  0  0  0999 V2000
    4.9000   -2.1792    0.0000 C   0  0  0  0  0  0  0  0  0  0  0  0
    4.9000   -3.8417    0.0000 N   0  0  0  0  0  0  0  0  0  0  0  0
    4.1875   -2.5917    0.0000 C   0  0  0  0  0  0  0  0  0  0  0  0
    4.1875   -3.4292    0.0000 C   0  0  0  0  0  0  0  0  0  0  0  0
    5.6042   -2.5917    0.0000 C   0  0  0  0  0  0  0  0  0  0  0  0
    5.6042   -3.4292    0.0000 C   0  0  0  0  0  0  0  0  0  0  0  0
    4.9000   -1.3542    0.0000 S   0  0  0  0  0  0  0  0  0  0  0  0
    5.6167   -0.9542    0.0000 C   0  0  0  0  0  0  0  0  0  0  0  0
    5.6167   -0.1292    0.0000 N   0  0  0  0  0  0  0  0  0  0  0  0
    3.4792   -3.8417    0.0000 C   0  0  0  0  0  0  0  0  0  0  0  0
    6.3167   -1.3667    0.0000 N   0  0  0  0  0  0  0  0  0  0  0  0
    3.4625   -4.6667    0.0000 Cl  0  0  0  0  0  0  0  0  0  0  0  0
    3.4792   -2.1792    0.0000 C   0  0  0  0  0  0  0  0  0  0  0  0
    6.3500   -2.1792    0.0000 C   0  0  0  0  0  0  0  0  0  0  0  0
    6.3292   -3.8417    0.0000 C   0  0  0  0  0  0  0  0  0  0  0  0
    2.7417   -2.5917    0.0000 C   0  0  0  0  0  0  0  0  0  0  0  0
    2.7417   -3.4292    0.0000 C   0  0  0  0  0  0  0  0  0  0  0  0
    7.0667   -2.5917    0.0000 C   0  0  0  0  0  0  0  0  0  0  0  0
    7.7875   -2.1792    0.0000 C   0  0  0  0  0  0  0  0  0  0  0  0
    7.5500   -0.6417    0.0000 Cl  0  0  0  0  0  0  0  0  0  0  0  0
  2  6  2  0  0  0  0
  3  1  1  0  0  0  0
  4  3  2  0  0  0  0
  5  1  2  0  0  0  0
  6  5  1  0  0  0  0
  7  1  1  0  0  0  0
  8  7  1  0  0  0  0
  9  8  2  0  0  0  0
 10  4  1  0  0  0  0
 11  8  1  0  0  0  0
 12 10  1  0  0  0  0
 13  3  1  0  0  0  0
 14  5  1  0  0  0  0
 15  6  1  0  0  0  0
 16 13  2  0  0  0  0
 17 16  1  0  0  0  0
 18 14  1  0  0  0  0
 19 18  1  0  0  0  0
  2  4  1  0  0  0  0
 10 17  2  0  0  0  0
M  END
> <#>
2026

> <PLATE>
LAT026

> <ROW>
B

> <COL>
5

> <COORD>
B05

> <LATID>
LAT026B05

> <Supplier>
Chembridge

> <Suplier_CAT#>
5687663

> <Sec_Name>
220_C09

> <Concentration_(mM)>
2.5

> <IC50_(µM)>
inactive

> <Yeast_Active?>
-

> <Pubchem_CID>
6340416

$$$$
