
  -ISIS-  08130814242D

 18 18  0  0  0  0  0  0  0  0999 V2000
    0.1042    0.3833    0.0000 C   0  0  0  0  0  0  0  0  0  0  0  0
   -0.2708    0.9458    0.0000 N   0  0  0  0  0  0  0  0  0  0  0  0
   -0.2708   -0.1792    0.0000 N   0  0  0  0  0  0  0  0  0  0  0  0
   -0.9500    0.7458    0.0000 C   0  0  0  0  0  0  0  0  0  0  0  0
   -0.9500    0.0458    0.0000 C   0  0  0  0  0  0  0  0  0  0  0  0
    0.8042    0.3625    0.0000 S   0  0  0  0  0  0  0  0  0  0  0  0
    1.8667   -0.2375    0.0000 C   0  0  0  0  0  0  0  0  0  0  0  0
    2.2042   -0.8375    0.0000 C   0  0  3  0  0  0  0  0  0  0  0  0
    1.1667   -0.2375    0.0000 C   0  0  0  0  0  0  0  0  0  0  0  0
    2.2292    0.3625    0.0000 O   0  0  0  0  0  0  0  0  0  0  0  0
   -1.5500    1.0833    0.0000 C   0  0  0  0  0  0  0  0  0  0  0  0
   -1.5500   -0.3167    0.0000 C   0  0  0  0  0  0  0  0  0  0  0  0
    2.9000   -0.8375    0.0000 C   0  0  0  0  0  0  0  0  0  0  0  0
    1.8542   -1.4375    0.0000 C   0  0  0  0  0  0  0  0  0  0  0  0
    2.6875   -0.3542    0.0000 C   0  0  0  0  0  0  0  0  0  0  0  0
   -2.1500    0.7458    0.0000 C   0  0  0  0  0  0  0  0  0  0  0  0
   -2.1500    0.0208    0.0000 C   0  0  0  0  0  0  0  0  0  0  0  0
    0.7500   -1.1292    0.0000 Br  0  0  0  0  0  0  0  0  0  0  0  0
  2  1  2  0  0  0  0
  3  1  1  0  0  0  0
  4  2  1  0  0  0  0
  5  3  1  0  0  0  0
  6  1  1  0  0  0  0
  7  9  1  0  0  0  0
  8  7  1  0  0  0  0
  9  6  1  0  0  0  0
 10  7  2  0  0  0  0
 11  4  1  0  0  0  0
 12  5  1  0  0  0  0
 13  8  1  0  0  0  0
 14  8  1  0  0  0  0
 15  8  1  0  0  0  0
 16 11  2  0  0  0  0
 17 12  2  0  0  0  0
  4  5  2  0  0  0  0
 16 17  1  0  0  0  0
M  END
> <#>
689

> <PLATE>
LAT009

> <ROW>
A

> <COL>
8

> <COORD>
A08

> <LATID>
LAT009A08

> <Supplier>
Chembridge

> <Suplier_CAT#>
5553639

> <Name>
Novel

> <Sec_Name>
163_E11

> <Concentration_(mM)>
2.5

> <IC50_(µM)>
70

> <Yeast_Active?>
-

> <Pubchem_CID>
NULL

$$$$
