
  -ISIS-  08130814242D

 22 23  0  0  0  0  0  0  0  0999 V2000
   -0.3833    0.8458    0.0000 C   0  0  0  0  0  0  0  0  0  0  0  0
    0.3292    1.2625    0.0000 C   0  0  0  0  0  0  0  0  0  0  0  0
   -1.1000    1.2583    0.0000 C   0  0  0  0  0  0  0  0  0  0  0  0
   -0.3833    0.0208    0.0000 C   0  0  0  0  0  0  0  0  0  0  0  0
   -1.8125    0.8458    0.0000 C   0  0  0  0  0  0  0  0  0  0  0  0
   -1.1000   -0.3917    0.0000 C   0  0  0  0  0  0  0  0  0  0  0  0
    3.1792    1.2708    0.0000 C   0  0  0  0  0  0  0  0  0  0  0  0
    1.0417    0.8583    0.0000 C   0  0  0  0  0  0  0  0  0  0  0  0
   -1.8125    0.0208    0.0000 C   0  0  0  0  0  0  0  0  0  0  0  0
    0.3250    2.0875    0.0000 O   0  0  0  0  0  0  0  0  0  0  0  0
    3.1792    2.0958    0.0000 C   0  0  0  0  0  0  0  0  0  0  0  0
    2.4667    0.8583    0.0000 C   0  0  0  0  0  0  0  0  0  0  0  0
    1.7542    1.2708    0.0000 C   0  0  0  0  0  0  0  0  0  0  0  0
    2.4625    2.5083    0.0000 C   0  0  0  0  0  0  0  0  0  0  0  0
   -1.1083    2.0833    0.0000 O   0  0  0  0  0  0  0  0  0  0  0  0
    0.3292   -0.3917    0.0000 O   0  0  0  0  0  0  0  0  0  0  0  0
    1.7500    2.0875    0.0000 C   0  0  0  0  0  0  0  0  0  0  0  0
    3.9000    0.8583    0.0000 O   0  0  0  0  0  0  0  0  0  0  0  0
   -2.5333   -0.3917    0.0000 O   0  0  0  0  0  0  0  0  0  0  0  0
    3.8917    2.5208    0.0000 O   0  0  0  0  0  0  0  0  0  0  0  0
    4.6125    1.2708    0.0000 C   0  0  0  0  0  0  0  0  0  0  0  0
    3.8917    3.3375    0.0000 C   0  0  0  0  0  0  0  0  0  0  0  0
  2  1  1  0  0  0  0
  3  1  2  0  0  0  0
  4  1  1  0  0  0  0
  5  3  1  0  0  0  0
  6  4  2  0  0  0  0
  7 12  1  0  0  0  0
  8  2  1  0  0  0  0
  9  6  1  0  0  0  0
 10  2  2  0  0  0  0
 11 14  1  0  0  0  0
 12 13  2  0  0  0  0
 13  8  1  0  0  0  0
 14 17  2  0  0  0  0
 15  3  1  0  0  0  0
 16  4  1  0  0  0  0
 17 13  1  0  0  0  0
 18  7  1  0  0  0  0
 19  9  1  0  0  0  0
 20 11  1  0  0  0  0
 21 18  1  0  0  0  0
 22 20  1  0  0  0  0
  9  5  2  0  0  0  0
 11  7  2  0  0  0  0
M  END
> <#>
1325

> <PLATE>
LAT017

> <ROW>
E

> <COL>
7

> <COORD>
E07

> <LATID>
LAT017E07

> <Supplier>
Chembridge

> <Suplier_CAT#>
7112640

> <Name>
Novel

> <Concentration_(mM)>
2.5

> <IC50_(µM)>
>100

> <Yeast_Active?>
-

> <Pubchem_CID>
804849

$$$$
