
  -ISIS-  08130814242D

 17 19  0  0  0  0  0  0  0  0999 V2000
    0.3792   -0.0708    0.0000 C   0  0  0  0  0  0  0  0  0  0  0  0
   -0.3375   -0.4875    0.0000 N   0  0  0  0  0  0  0  0  0  0  0  0
    1.0875   -0.4833    0.0000 N   0  0  3  0  0  0  0  0  0  0  0  0
   -1.0458   -0.0792    0.0000 C   0  0  0  0  0  0  0  0  0  0  0  0
    0.3792    0.7625    0.0000 C   0  0  0  0  0  0  0  0  0  0  0  0
   -0.3417    1.1667    0.0000 C   0  0  0  0  0  0  0  0  0  0  0  0
   -1.0458    0.7500    0.0000 C   0  0  0  0  0  0  0  0  0  0  0  0
    2.5208   -1.3000    0.0000 N   0  0  0  0  0  0  0  0  0  0  0  0
    1.8000   -0.0625    0.0000 C   0  0  0  0  0  0  0  0  0  0  0  0
    1.1000   -1.3083    0.0000 C   0  0  0  0  0  0  0  0  0  0  0  0
   -0.3458    1.9917    0.0000 C   0  0  0  0  0  0  0  0  0  0  0  0
   -1.7625   -0.4875    0.0000 C   0  0  0  0  0  0  0  0  0  0  0  0
    2.5208   -0.4792    0.0000 C   0  0  0  0  0  0  0  0  0  0  0  0
    1.8000   -1.7125    0.0000 C   0  0  0  0  0  0  0  0  0  0  0  0
   -1.7625    1.1625    0.0000 C   0  0  0  0  0  0  0  0  0  0  0  0
   -2.4833   -0.0792    0.0000 C   0  0  0  0  0  0  0  0  0  0  0  0
   -2.4833    0.7500    0.0000 C   0  0  0  0  0  0  0  0  0  0  0  0
  2  1  2  0  0  0  0
  3  1  1  0  0  0  0
  4  2  1  0  0  0  0
  5  1  1  0  0  0  0
  6  5  2  0  0  0  0
  7  6  1  0  0  0  0
  8 13  1  0  0  0  0
  9  3  1  0  0  0  0
 10  3  1  0  0  0  0
 11  6  1  0  0  0  0
 12  4  2  0  0  0  0
 13  9  1  0  0  0  0
 14 10  1  0  0  0  0
 15  7  2  0  0  0  0
 16 12  1  0  0  0  0
 17 15  1  0  0  0  0
  4  7  1  0  0  0  0
  8 14  1  0  0  0  0
 16 17  2  0  0  0  0
M  END
> <#>
1873

> <PLATE>
LAT024

> <ROW>
A

> <COL>
6

> <COORD>
A06

> <LATID>
LAT024A06

> <Supplier>
Asinex

> <Suplier_CAT#>
BAS 01047797

> <Name>
Novel

> <Concentration_(mM)>
2.5

> <IC50_(µM)>
inactive

> <Yeast_Active?>
-

> <Pubchem_CID>
598754

$$$$
