
  -ISIS-  08130814242D

 11 11  0  0  0  0  0  0  0  0999 V2000
    0.7083   -3.6808    0.0000 C   0  0  0  0  0  0  0  0  0  0  0  0
    1.9583   -3.6808    0.0000 C   0  0  0  0  0  0  0  0  0  0  0  0
    2.5833   -2.5983    0.0000 C   0  0  0  0  0  0  0  0  0  0  0  0
    3.8333   -2.5983    0.0000 C   0  0  0  0  0  0  0  0  0  0  0  0
    4.4583   -3.6809    0.0000 C   0  0  0  0  0  0  0  0  0  0  0  0
    3.8333   -4.7634    0.0000 C   0  0  0  0  0  0  0  0  0  0  0  0
    2.5833   -4.7634    0.0000 C   0  0  0  0  0  0  0  0  0  0  0  0
    0.0833   -4.7634    0.0000 O   0  0  0  0  0  0  0  0  0  0  0  0
    0.0833   -2.5983    0.0000 O   0  0  0  0  0  0  0  0  0  0  0  0
    4.4583   -1.5158    0.0000 O   0  0  0  0  0  0  0  0  0  0  0  0
    1.9583   -1.5158    0.0000 O   0  0  0  0  0  0  0  0  0  0  0  0
  1  2  1  0  0  0  0
  2  3  1  0  0  0  0
  3  4  2  0  0  0  0
  4  5  1  0  0  0  0
  5  6  2  0  0  0  0
  6  7  1  0  0  0  0
  2  7  2  0  0  0  0
  1  8  2  0  0  0  0
  1  9  1  0  0  0  0
  4 10  1  0  0  0  0
  3 11  1  0  0  0  0
M  END
> <#>
351

> <PLATE>
LAT005

> <ROW>
G

> <COL>
5

> <COORD>
G05

> <LATID>
LAT005G05

> <Supplier>
Aldrich

> <Suplier_CAT#>
126209

> <Name>
2,3-Dihydroxybenzoic Acid

> <Concentration_(mM)>
2.5

> <IC50_(µM)>
inactive

> <Yeast_Active?>
-

> <Pubchem_CID>
19

$$$$
