
  -ISIS-  08130814242D

 28 30  0  0  0  0  0  0  0  0999 V2000
    1.3792   -0.1542    0.0000 C   0  0  0  0  0  0  0  0  0  0  0  0
   -1.8833   -0.1167    0.0000 C   0  0  0  0  0  0  0  0  0  0  0  0
   -2.7000    0.3458    0.0000 C   0  0  0  0  0  0  0  0  0  0  0  0
   -1.0625    0.3458    0.0000 C   0  0  0  0  0  0  0  0  0  0  0  0
    1.3542   -1.1000    0.0000 C   0  0  0  0  0  0  0  0  0  0  0  0
   -3.5208   -0.1375    0.0000 C   0  0  0  0  0  0  0  0  0  0  0  0
    0.5542    0.3208    0.0000 C   0  0  0  0  0  0  0  0  0  0  0  0
    2.1917    0.3208    0.0000 C   0  0  0  0  0  0  0  0  0  0  0  0
   -2.7000    1.3000    0.0000 O   0  0  0  0  0  0  0  0  0  0  0  0
   -0.2458   -0.1375    0.0000 C   0  0  0  0  0  0  0  0  0  0  0  0
    0.5542   -1.5375    0.0000 C   0  0  0  0  0  0  0  0  0  0  0  0
   -3.5208   -1.0792    0.0000 C   0  0  0  0  0  0  0  0  0  0  0  0
   -4.3458    0.3458    0.0000 C   0  0  0  0  0  0  0  0  0  0  0  0
    3.0167   -0.1542    0.0000 O   0  0  0  0  0  0  0  0  0  0  0  0
    3.8167    0.3000    0.0000 C   0  0  0  0  0  0  0  0  0  0  0  0
    5.4542    1.2458    0.0000 C   0  0  0  0  0  0  0  0  0  0  0  0
   -5.1625   -1.0792    0.0000 C   0  0  0  0  0  0  0  0  0  0  0  0
   -0.2625   -1.0792    0.0000 C   0  0  0  0  0  0  0  0  0  0  0  0
   -4.3458   -1.5375    0.0000 C   0  0  0  0  0  0  0  0  0  0  0  0
   -5.1625   -0.1375    0.0000 C   0  0  0  0  0  0  0  0  0  0  0  0
    6.3000    1.7208    0.0000 F   0  0  0  0  0  0  0  0  0  0  0  0
    2.1792   -1.6000    0.0000 O   0  0  0  0  0  0  0  0  0  0  0  0
    4.6375   -0.1792    0.0000 C   0  0  0  0  0  0  0  0  0  0  0  0
    3.8375    1.2458    0.0000 C   0  0  0  0  0  0  0  0  0  0  0  0
    4.6375    1.7208    0.0000 C   0  0  0  0  0  0  0  0  0  0  0  0
    5.4542    0.3000    0.0000 C   0  0  0  0  0  0  0  0  0  0  0  0
   -5.9833   -1.5542    0.0000 O   0  0  0  0  0  0  0  0  0  0  0  0
    3.0167   -1.1542    0.0000 C   0  0  0  0  0  0  0  0  0  0  0  0
  2  4  2  0  0  0  0
  3  2  1  0  0  0  0
  4 10  1  0  0  0  0
  5  1  1  0  0  0  0
  6  3  1  0  0  0  0
  7  1  2  0  0  0  0
  8  1  1  0  0  0  0
  9  3  2  0  0  0  0
 10  7  1  0  0  0  0
 11  5  2  0  0  0  0
 12  6  2  0  0  0  0
 13  6  1  0  0  0  0
 14  8  1  0  0  0  0
 15 14  1  0  0  0  0
 16 25  1  0  0  0  0
 17 20  1  0  0  0  0
 18 10  2  0  0  0  0
 19 12  1  0  0  0  0
 20 13  2  0  0  0  0
 21 16  1  0  0  0  0
 22  5  1  0  0  0  0
 23 15  2  0  0  0  0
 24 15  1  0  0  0  0
 25 24  2  0  0  0  0
 26 23  1  0  0  0  0
 27 17  1  0  0  0  0
 28 22  1  0  0  0  0
 11 18  1  0  0  0  0
 26 16  2  0  0  0  0
 19 17  2  0  0  0  0
M  END
> <#>
1228

> <PLATE>
LAT016

> <ROW>
D

> <COL>
5

> <COORD>
D05

> <LATID>
LAT016D05

> <Supplier>
Chembridge

> <Suplier_CAT#>
6148332

> <Name>
Novel

> <Concentration_(mM)>
2.5

> <IC50_(µM)>
inactive

> <Yeast_Active?>
-

> <Pubchem_CID>
2887753

$$$$
