
  -ISIS-  08130814242D

 32 35  0  0  0  0  0  0  0  0999 V2000
    6.8667    1.1833    0.0000 N   0  3  0  0  0  0  0  0  0  0  0  0
    6.1167    1.1833    0.0000 C   0  0  0  0  0  0  0  0  0  0  0  0
    1.6167    1.1833    0.0000 C   0  0  0  0  0  0  0  0  0  0  0  0
    2.3667    1.1833    0.0000 N   0  0  3  0  0  0  0  0  0  0  0  0
    5.7417    1.8333    0.0000 C   0  0  0  0  0  0  0  0  0  0  0  0
    3.8667    1.1833    0.0000 N   0  0  3  0  0  0  0  0  0  0  0  0
    4.9917    1.8333    0.0000 C   0  0  0  0  0  0  0  0  0  0  0  0
    4.6167    1.1833    0.0000 C   0  0  0  0  0  0  0  0  0  0  0  0
    5.7417    0.5375    0.0000 C   0  0  0  0  0  0  0  0  0  0  0  0
    6.1167    2.4833    0.0000 N   0  0  0  0  0  0  0  0  0  0  0  0
    7.2417    0.5375    0.0000 O   0  5  0  0  0  0  0  0  0  0  0  0
    1.2417    1.8333    0.0000 C   0  0  0  0  0  0  0  0  0  0  0  0
    7.2417    1.8333    0.0000 O   0  0  0  0  0  0  0  0  0  0  0  0
    2.7417    0.5375    0.0000 C   0  0  0  0  0  0  0  0  0  0  0  0
    2.7417    1.8333    0.0000 C   0  0  0  0  0  0  0  0  0  0  0  0
    3.4917    0.5375    0.0000 C   0  0  0  0  0  0  0  0  0  0  0  0
    3.4917    1.8333    0.0000 C   0  0  0  0  0  0  0  0  0  0  0  0
    1.2417    0.5375    0.0000 O   0  0  0  0  0  0  0  0  0  0  0  0
    4.9917    0.5375    0.0000 C   0  0  0  0  0  0  0  0  0  0  0  0
    6.8667    3.7833    0.0000 N   0  0  0  0  0  0  0  0  0  0  0  0
    1.6167    2.4833    0.0000 C   0  0  0  0  0  0  0  0  0  0  0  0
    0.4917    1.8333    0.0000 C   0  0  0  0  0  0  0  0  0  0  0  0
    5.7417    3.1333    0.0000 C   0  0  0  0  0  0  0  0  0  0  0  0
    6.1167    3.7833    0.0000 C   0  0  0  0  0  0  0  0  0  0  0  0
    0.4917    3.1333    0.0000 C   0  0  0  0  0  0  0  0  0  0  0  0
    0.1167    2.4833    0.0000 C   0  0  0  0  0  0  0  0  0  0  0  0
    1.2417    3.1333    0.0000 C   0  0  0  0  0  0  0  0  0  0  0  0
    0.1167    3.7833    0.0000 Cl  0  0  0  0  0  0  0  0  0  0  0  0
    7.2417    4.4292    0.0000 C   0  0  0  0  0  0  0  0  0  0  0  0
    5.7417    4.4292    0.0000 C   0  0  0  0  0  0  0  0  0  0  0  0
    6.8667    5.0792    0.0000 C   0  0  0  0  0  0  0  0  0  0  0  0
    6.1167    5.0792    0.0000 C   0  0  0  0  0  0  0  0  0  0  0  0
  2  1  1  0  0  0  0
  3  4  1  0  0  0  0
  4 15  1  0  0  0  0
  5  2  2  0  0  0  0
  6  8  1  0  0  0  0
  7  5  1  0  0  0  0
  8 19  1  0  0  0  0
  9  2  1  0  0  0  0
 10  5  1  0  0  0  0
 11  1  1  0  0  0  0
 12  3  1  0  0  0  0
 13  1  2  0  0  0  0
 14 16  1  0  0  0  0
 15 17  1  0  0  0  0
 16  6  1  0  0  0  0
 17  6  1  0  0  0  0
 18  3  2  0  0  0  0
 19  9  2  0  0  0  0
 20 24  1  0  0  0  0
 21 12  2  0  0  0  0
 22 12  1  0  0  0  0
 23 10  1  0  0  0  0
 24 23  1  0  0  0  0
 25 26  1  0  0  0  0
 26 22  2  0  0  0  0
 27 21  1  0  0  0  0
 28 25  1  0  0  0  0
 29 20  2  0  0  0  0
 30 24  2  0  0  0  0
 31 32  2  0  0  0  0
 32 30  1  0  0  0  0
  8  7  2  0  0  0  0
  4 14  1  0  0  0  0
 31 29  1  0  0  0  0
 25 27  2  0  0  0  0
M  CHG  2   1   1  11  -1
M  END
> <#>
1572

> <PLATE>
LAT020

> <ROW>
D

> <COL>
8

> <COORD>
D08

> <LATID>
LAT020D08

> <Supplier>
Chembridge

> <Suplier_CAT#>
7951095

> <Name>
Novel

> <Concentration_(mM)>
2.5

> <IC50_(µM)>
inactive

> <Yeast_Active?>
-

> <Pubchem_CID>
2972019

$$$$
