
  -ISIS-  08130814242D

 27 29  0  0  0  0  0  0  0  0999 V2000
    1.6792   -2.8792    0.0000 C   0  0  0  0  0  0  0  0  0  0  0  0
    1.0292   -2.5042    0.0000 C   0  0  3  0  0  0  0  0  0  0  0  0
    1.6792   -3.6292    0.0000 C   0  0  0  0  0  0  0  0  0  0  0  0
    0.3792   -3.6292    0.0000 C   0  0  0  0  0  0  0  0  0  0  0  0
    1.0292   -4.0042    0.0000 N   0  0  0  0  0  0  0  0  0  0  0  0
    0.3792   -2.8792    0.0000 N   0  0  0  0  0  0  0  0  0  0  0  0
    2.3292   -2.5000    0.0000 C   0  0  0  0  0  0  0  0  0  0  0  0
    1.0292   -1.7542    0.0000 C   0  0  0  0  0  0  0  0  0  0  0  0
   -0.2708   -4.0042    0.0000 O   0  0  0  0  0  0  0  0  0  0  0  0
    0.3792   -1.3792    0.0000 C   0  0  0  0  0  0  0  0  0  0  0  0
    2.3167   -1.7500    0.0000 O   0  0  0  0  0  0  0  0  0  0  0  0
    0.3792   -0.6292    0.0000 C   0  0  0  0  0  0  0  0  0  0  0  0
    2.9875   -2.8667    0.0000 O   0  0  0  0  0  0  0  0  0  0  0  0
    2.3292   -4.0167    0.0000 C   0  0  0  0  0  0  0  0  0  0  0  0
   -0.2625   -0.2542    0.0000 F   0  0  0  0  0  0  0  0  0  0  0  0
    5.5792   -2.8500    0.0000 C   0  0  0  0  0  0  0  0  0  0  0  0
    1.6792   -1.3792    0.0000 C   0  0  0  0  0  0  0  0  0  0  0  0
    4.9292   -2.4792    0.0000 O   0  0  0  0  0  0  0  0  0  0  0  0
    1.6792   -0.6292    0.0000 C   0  0  0  0  0  0  0  0  0  0  0  0
    1.0292   -0.2542    0.0000 C   0  0  0  0  0  0  0  0  0  0  0  0
    3.6292   -2.4875    0.0000 C   0  0  0  0  0  0  0  0  0  0  0  0
    4.2792   -2.8542    0.0000 C   0  0  0  0  0  0  0  0  0  0  0  0
    6.2292   -2.4667    0.0000 C   0  0  0  0  0  0  0  0  0  0  0  0
    5.5875   -3.6000    0.0000 C   0  0  0  0  0  0  0  0  0  0  0  0
    6.2375   -3.9667    0.0000 C   0  0  0  0  0  0  0  0  0  0  0  0
    6.8792   -2.8375    0.0000 C   0  0  0  0  0  0  0  0  0  0  0  0
    6.8875   -3.5875    0.0000 C   0  0  0  0  0  0  0  0  0  0  0  0
  2  1  1  0  0  0  0
  3  1  2  0  0  0  0
  4  5  1  0  0  0  0
  5  3  1  0  0  0  0
  6  2  1  0  0  0  0
  7  1  1  0  0  0  0
  8  2  1  0  0  0  0
  9  4  2  0  0  0  0
 10  8  1  0  0  0  0
 11  7  2  0  0  0  0
 12 10  2  0  0  0  0
 13  7  1  0  0  0  0
 14  3  1  0  0  0  0
 15 12  1  0  0  0  0
 16 18  1  0  0  0  0
 17  8  2  0  0  0  0
 18 22  1  0  0  0  0
 19 17  1  0  0  0  0
 20 19  2  0  0  0  0
 21 13  1  0  0  0  0
 22 21  1  0  0  0  0
 23 16  2  0  0  0  0
 24 16  1  0  0  0  0
 25 24  2  0  0  0  0
 26 23  1  0  0  0  0
 27 25  1  0  0  0  0
  4  6  1  0  0  0  0
 20 12  1  0  0  0  0
 26 27  2  0  0  0  0
M  END
> <#>
568

> <PLATE>
LAT008

> <ROW>
H

> <COL>
2

> <COORD>
H02

> <LATID>
LAT008H02

> <Supplier>
Chembridge

> <Suplier_CAT#>
5475628

> <Name>
Novel

> <Sec_Name>
138_F07

> <Concentration_(mM)>
2.5

> <IC50_(µM)>
25

> <Yeast_Active?>
-

> <Pubchem_CID>
2847961

$$$$
