
  -ISIS-  08130814242D

 12 12  0  0  0  0  0  0  0  0999 V2000
    6.9131   -3.3917    0.0000 C   0  0  0  0  0  0  0  0  0  0  0  0
    5.8306   -2.7667    0.0000 C   0  0  0  0  0  0  0  0  0  0  0  0
    4.7480   -3.3917    0.0000 C   0  0  0  0  0  0  0  0  0  0  0  0
    3.6655   -2.7667    0.0000 C   0  0  0  0  0  0  0  0  0  0  0  0
    2.5830   -3.3917    0.0000 C   0  0  0  0  0  0  0  0  0  0  0  0
    1.5005   -2.7667    0.0000 C   0  0  0  0  0  0  0  0  0  0  0  0
    1.5005   -1.5167    0.0000 C   0  0  0  0  0  0  0  0  0  0  0  0
    2.5830   -0.8917    0.0000 C   0  0  0  0  0  0  0  0  0  0  0  0
    3.6655   -1.5167    0.0000 C   0  0  0  0  0  0  0  0  0  0  0  0
    2.5830   -4.6417    0.0000 O   0  0  0  0  0  0  0  0  0  0  0  0
    6.9131   -4.6417    0.0000 O   0  0  0  0  0  0  0  0  0  0  0  0
    7.9956   -2.7667    0.0000 O   0  0  0  0  0  0  0  0  0  0  0  0
  1  2  1  0  0  0  0
  2  3  2  0  0  0  0
  3  4  1  0  0  0  0
  4  5  1  0  0  0  0
  5  6  2  0  0  0  0
  6  7  1  0  0  0  0
  7  8  2  0  0  0  0
  8  9  1  0  0  0  0
  4  9  2  0  0  0  0
  5 10  1  0  0  0  0
  1 11  2  0  0  0  0
  1 12  1  0  0  0  0
M  END
> <#>
311

> <PLATE>
LAT004

> <ROW>
G

> <COL>
10

> <COORD>
G10

> <LATID>
LAT004G10

> <Supplier>
Sigma

> <Suplier_CAT#>
C-4400

> <Name>
O-Coumaric Acid

> <Concentration_(mM)>
2.5

> <IC50_(µM)>
>100

> <Yeast_Active?>
-

> <Pubchem_CID>
11968

$$$$
