
  -ISIS-  08130814242D

 11 11  0  0  0  0  0  0  0  0999 V2000
    8.2461   -3.2875    0.0000 C   0  0  0  0  0  0  0  0  0  0  0  0
    7.3537   -3.2875    0.0000 C   0  0  0  0  0  0  0  0  0  0  0  0
    6.9076   -4.0603    0.0000 C   0  0  0  0  0  0  0  0  0  0  0  0
    6.0153   -4.0603    0.0000 C   0  0  0  0  0  0  0  0  0  0  0  0
    5.5691   -3.2875    0.0000 C   0  0  0  0  0  0  0  0  0  0  0  0
    6.0153   -2.5147    0.0000 C   0  0  0  0  0  0  0  0  0  0  0  0
    6.9076   -2.5147    0.0000 C   0  0  0  0  0  0  0  0  0  0  0  0
    8.6922   -4.0603    0.0000 O   0  0  0  0  0  0  0  0  0  0  0  0
    8.6922   -2.5147    0.0000 O   0  0  0  0  0  0  0  0  0  0  0  0
    7.3500   -1.7375    0.0000 O   0  0  0  0  0  0  0  0  0  0  0  0
    7.3458   -0.8417    0.0000 C   0  0  0  0  0  0  0  0  0  0  0  0
  2  3  1  0  0  0  0
  3  4  2  0  0  0  0
  4  5  1  0  0  0  0
  5  6  2  0  0  0  0
  6  7  1  0  0  0  0
  2  7  2  0  0  0  0
  1  8  2  0  0  0  0
  1  9  1  0  0  0  0
  7 10  1  0  0  0  0
  1  2  1  0  0  0  0
 10 11  1  0  0  0  0
M  END
> <#>
490

> <PLATE>
LAT007

> <ROW>
B

> <COL>
3

> <COORD>
B03

> <LATID>
LAT007B03

> <Supplier>
Aldrich

> <Suplier_CAT#>
169978

> <Name>
O-Anisic Acid

> <Concentration_(mM)>
2.5

> <IC50_(µM)>
>100

> <Yeast_Active?>
-

> <Pubchem_CID>
6318

$$$$
