
  -ISIS-  08130814242D

 21 22  0  0  0  0  0  0  0  0999 V2000
   -3.7500   -1.9167    0.0000 N   0  3  0  0  0  0  0  0  0  0  0  0
   -3.3333   -1.2000    0.0000 C   0  0  0  0  0  0  0  0  0  0  0  0
   -2.4958   -1.2000    0.0000 C   0  0  0  0  0  0  0  0  0  0  0  0
   -2.0958   -0.5000    0.0000 C   0  0  0  0  0  0  0  0  0  0  0  0
   -1.2500   -0.5000    0.0000 C   0  0  0  0  0  0  0  0  0  0  0  0
   -4.5708   -1.9167    0.0000 O   0  5  0  0  0  0  0  0  0  0  0  0
   -3.3333   -2.6375    0.0000 O   0  0  0  0  0  0  0  0  0  0  0  0
    1.2292   -1.9375    0.0000 C   0  0  0  0  0  0  0  0  0  0  0  0
   -0.8500    0.2208    0.0000 O   0  0  0  0  0  0  0  0  0  0  0  0
   -0.8500   -1.2167    0.0000 N   0  0  0  0  0  0  0  0  0  0  0  0
    1.6292   -1.2167    0.0000 C   0  0  0  0  0  0  0  0  0  0  0  0
   -3.7333   -0.5000    0.0000 C   0  0  0  0  0  0  0  0  0  0  0  0
   -0.0125   -1.2167    0.0000 C   0  0  0  0  0  0  0  0  0  0  0  0
   -2.0708   -1.9167    0.0000 C   0  0  0  0  0  0  0  0  0  0  0  0
   -2.4958    0.2458    0.0000 C   0  0  0  0  0  0  0  0  0  0  0  0
    0.3875   -1.9375    0.0000 C   0  0  0  0  0  0  0  0  0  0  0  0
   -3.3125    0.2458    0.0000 C   0  0  0  0  0  0  0  0  0  0  0  0
    1.6292   -2.6542    0.0000 C   0  0  0  0  0  0  0  0  0  0  0  0
    2.4667   -1.2167    0.0000 C   0  0  0  0  0  0  0  0  0  0  0  0
    2.4417   -2.6542    0.0000 C   0  0  0  0  0  0  0  0  0  0  0  0
    2.8667   -1.9375    0.0000 C   0  0  0  0  0  0  0  0  0  0  0  0
  2  1  1  0  0  0  0
  3  2  2  0  0  0  0
  4  3  1  0  0  0  0
  5  4  1  0  0  0  0
  6  1  1  0  0  0  0
  7  1  2  0  0  0  0
  8 16  1  0  0  0  0
  9  5  2  0  0  0  0
 10  5  1  0  0  0  0
 11  8  2  0  0  0  0
 12  2  1  0  0  0  0
 13 10  1  0  0  0  0
 14  3  1  0  0  0  0
 15 17  1  0  0  0  0
 16 13  1  0  0  0  0
 17 12  2  0  0  0  0
 18  8  1  0  0  0  0
 19 11  1  0  0  0  0
 20 18  1  0  0  0  0
 21 20  1  0  0  0  0
  4 15  2  0  0  0  0
 21 19  1  0  0  0  0
M  CHG  2   1   1   6  -1
M  END
> <#>
1084

> <PLATE>
LAT014

> <ROW>
D

> <COL>
7

> <COORD>
D07

> <LATID>
LAT014D07

> <Supplier>
Chembridge

> <Suplier_CAT#>
5685084

> <Name>
Novel

> <Concentration_(mM)>
2.5

> <IC50_(µM)>
48

> <Yeast_Active?>
-

> <Pubchem_CID>
790936

$$$$
