
  -ISIS-  08130814242D

 23 25  0  0  0  0  0  0  0  0999 V2000
    2.9250    4.1500    0.0000 C   0  0  0  0  0  0  0  0  0  0  0  0
    2.6167    4.8375    0.0000 C   0  0  0  0  0  0  0  0  0  0  0  0
    2.3667    3.6583    0.0000 C   0  0  0  0  0  0  0  0  0  0  0  0
    1.8750    4.7542    0.0000 O   0  0  0  0  0  0  0  0  0  0  0  0
    1.7167    4.0250    0.0000 C   0  0  0  0  0  0  0  0  0  0  0  0
    3.6542    4.0000    0.0000 C   0  0  0  0  0  0  0  0  0  0  0  0
    3.8917    3.2958    0.0000 C   0  0  0  0  0  0  0  0  0  0  0  0
    2.3667    2.9083    0.0000 C   0  0  0  0  0  0  0  0  0  0  0  0
    4.6250    3.1333    0.0000 N   0  0  0  0  0  0  0  0  0  0  0  0
    5.8167    1.5458    0.0000 N   0  0  0  0  0  0  0  0  0  0  0  0
    2.9917    5.4792    0.0000 Br  0  0  0  0  0  0  0  0  0  0  0  0
    1.0667    3.6583    0.0000 C   0  0  0  0  0  0  0  0  0  0  0  0
    3.3917    2.7333    0.0000 O   0  0  0  0  0  0  0  0  0  0  0  0
    5.5917    2.2708    0.0000 C   0  0  0  0  0  0  0  0  0  0  0  0
    1.7167    2.5333    0.0000 C   0  0  0  0  0  0  0  0  0  0  0  0
    4.8542    2.4208    0.0000 C   0  0  0  0  0  0  0  0  0  0  0  0
    1.0667    2.9083    0.0000 C   0  0  0  0  0  0  0  0  0  0  0  0
    6.5542    1.3958    0.0000 C   0  0  0  0  0  0  0  0  0  0  0  0
    1.7167    1.7833    0.0000 C   0  0  0  0  0  0  0  0  0  0  0  0
    6.0917    2.8208    0.0000 C   0  0  0  0  0  0  0  0  0  0  0  0
    1.0667    1.4083    0.0000 C   0  0  0  0  0  0  0  0  0  0  0  0
    7.0542    1.9583    0.0000 C   0  0  0  0  0  0  0  0  0  0  0  0
    6.8250    2.6625    0.0000 C   0  0  0  0  0  0  0  0  0  0  0  0
  2  1  2  0  0  0  0
  3  1  1  0  0  0  0
  4  2  1  0  0  0  0
  5  3  1  0  0  0  0
  6  1  1  0  0  0  0
  7  6  1  0  0  0  0
  8  3  2  0  0  0  0
  9  7  1  0  0  0  0
 10 14  2  0  0  0  0
 11  2  1  0  0  0  0
 12  5  2  0  0  0  0
 13  7  2  0  0  0  0
 14 16  1  0  0  0  0
 15  8  1  0  0  0  0
 16  9  1  0  0  0  0
 17 15  2  0  0  0  0
 18 10  1  0  0  0  0
 19 15  1  0  0  0  0
 20 14  1  0  0  0  0
 21 19  1  0  0  0  0
 22 23  1  0  0  0  0
 23 20  2  0  0  0  0
  4  5  1  0  0  0  0
 17 12  1  0  0  0  0
 18 22  2  0  0  0  0
M  END
> <#>
1456

> <PLATE>
LAT019

> <ROW>
H

> <COL>
3

> <COORD>
H03

> <LATID>
LAT019H03

> <Supplier>
Chembridge

> <Suplier_CAT#>
9024225

> <Name>
Novel

> <Concentration_(mM)>
2.5

> <IC50_(µM)>
>100

> <Yeast_Active?>
-

> <Pubchem_CID>
6459699

$$$$
