
  -ISIS-  08130814242D

 22 23  0  0  0  0  0  0  0  0999 V2000
   -2.3833   -0.8042    0.0000 C   0  0  0  0  0  0  0  0  0  0  0  0
   -1.0958   -0.8167    0.0000 N   0  0  0  0  0  0  0  0  0  0  0  0
   -1.7458   -0.4500    0.0000 N   0  0  0  0  0  0  0  0  0  0  0  0
   -3.6625   -0.8167    0.0000 O   0  0  0  0  0  0  0  0  0  0  0  0
   -2.3833   -1.5542    0.0000 O   0  0  0  0  0  0  0  0  0  0  0  0
   -4.3000   -0.4542    0.0000 C   0  0  0  0  0  0  0  0  0  0  0  0
   -3.0125   -0.4500    0.0000 C   0  0  0  0  0  0  0  0  0  0  0  0
   -4.9583   -0.8167    0.0000 C   0  0  0  0  0  0  0  0  0  0  0  0
   -0.4500   -0.4542    0.0000 C   0  0  0  0  0  0  0  0  0  0  0  0
    0.1792   -0.8375    0.0000 C   0  0  0  0  0  0  0  0  0  0  0  0
    1.4375   -1.6292    0.0000 C   0  0  0  0  0  0  0  0  0  0  0  0
    2.0500   -2.0292    0.0000 Br  0  0  0  0  0  0  0  0  0  0  0  0
    0.7875   -1.9667    0.0000 C   0  0  0  0  0  0  0  0  0  0  0  0
    1.4667   -0.8792    0.0000 C   0  0  0  0  0  0  0  0  0  0  0  0
    0.1542   -1.5667    0.0000 C   0  0  0  0  0  0  0  0  0  0  0  0
    0.8375   -0.5000    0.0000 C   0  0  0  0  0  0  0  0  0  0  0  0
   -4.9708   -1.5542    0.0000 C   0  0  0  0  0  0  0  0  0  0  0  0
   -4.2833    0.3000    0.0000 C   0  0  0  0  0  0  0  0  0  0  0  0
   -5.5958   -0.4542    0.0000 C   0  0  0  0  0  0  0  0  0  0  0  0
   -4.3458   -1.9292    0.0000 C   0  0  0  0  0  0  0  0  0  0  0  0
   -4.9208    0.6708    0.0000 C   0  0  0  0  0  0  0  0  0  0  0  0
   -5.5958    0.2833    0.0000 C   0  0  0  0  0  0  0  0  0  0  0  0
  2  3  1  0  0  0  0
  3  1  1  0  0  0  0
  4  7  1  0  0  0  0
  5  1  2  0  0  0  0
  6  4  1  0  0  0  0
  7  1  1  0  0  0  0
  8  6  1  0  0  0  0
  9  2  2  0  0  0  0
 10  9  1  0  0  0  0
 11 14  2  0  0  0  0
 12 11  1  0  0  0  0
 13 15  2  0  0  0  0
 14 16  1  0  0  0  0
 15 10  1  0  0  0  0
 16 10  2  0  0  0  0
 17  8  1  0  0  0  0
 18  6  2  0  0  0  0
 19  8  2  0  0  0  0
 20 17  1  0  0  0  0
 21 18  1  0  0  0  0
 22 21  2  0  0  0  0
 19 22  1  0  0  0  0
 11 13  1  0  0  0  0
M  END
> <#>
1958

> <PLATE>
LAT025

> <ROW>
F

> <COL>
6

> <COORD>
F06

> <LATID>
LAT025F06

> <Supplier>
Chembridge

> <Suplier_CAT#>
5129272

> <Concentration_(mM)>
2.5

> <IC50_(µM)>
inactive

> <Yeast_Active?>
-

> <Pubchem_CID>
4561245

$$$$
