
  -ISIS-  08130814242D

 27 31  0  0  0  0  0  0  0  0999 V2000
    3.9042    2.1333    0.0000 N   0  0  0  0  0  0  0  0  0  0  0  0
    3.7792    3.8125    0.0000 N   0  0  0  0  0  0  0  0  0  0  0  0
    2.7875    2.8958    0.0000 C   0  0  0  0  0  0  0  0  0  0  0  0
    3.1625    2.2458    0.0000 C   0  0  0  0  0  0  0  0  0  0  0  0
    3.0625    3.5958    0.0000 C   0  0  0  0  0  0  0  0  0  0  0  0
    4.4542    2.6458    0.0000 C   0  0  0  0  0  0  0  0  0  0  0  0
    4.4000    3.3958    0.0000 N   0  0  0  0  0  0  0  0  0  0  0  0
    2.0375    2.8958    0.0000 C   0  0  0  0  0  0  0  0  0  0  0  0
    2.7875    1.5958    0.0000 C   0  0  0  0  0  0  0  0  0  0  0  0
    2.5542    4.1375    0.0000 C   0  0  0  0  0  0  0  0  0  0  0  0
    1.6625    2.2458    0.0000 C   0  0  0  0  0  0  0  0  0  0  0  0
    2.0375    1.5958    0.0000 C   0  0  0  0  0  0  0  0  0  0  0  0
    5.1542    2.3708    0.0000 C   0  0  0  0  0  0  0  0  0  0  0  0
    2.2542    5.4042    0.0000 N   0  0  0  0  0  0  0  0  0  0  0  0
    2.7750    4.8542    0.0000 C   0  0  0  0  0  0  0  0  0  0  0  0
    1.8167    3.9833    0.0000 C   0  0  0  0  0  0  0  0  0  0  0  0
    1.5292    5.2292    0.0000 C   0  0  0  0  0  0  0  0  0  0  0  0
    0.9125    2.2458    0.0000 C   0  0  0  0  0  0  0  0  0  0  0  0
    1.6625    0.9458    0.0000 C   0  0  0  0  0  0  0  0  0  0  0  0
    5.2667    1.6250    0.0000 C   0  0  0  0  0  0  0  0  0  0  0  0
    5.7375    2.8333    0.0000 C   0  0  0  0  0  0  0  0  0  0  0  0
    1.3125    4.5167    0.0000 C   0  0  0  0  0  0  0  0  0  0  0  0
    0.9125    0.9458    0.0000 C   0  0  0  0  0  0  0  0  0  0  0  0
    0.5375    1.5958    0.0000 C   0  0  0  0  0  0  0  0  0  0  0  0
    6.4375    2.5625    0.0000 C   0  0  0  0  0  0  0  0  0  0  0  0
    5.9625    1.3500    0.0000 C   0  0  0  0  0  0  0  0  0  0  0  0
    6.5500    1.8208    0.0000 C   0  0  0  0  0  0  0  0  0  0  0  0
  2  7  1  0  0  0  0
  3  4  1  0  0  0  0
  4  1  1  0  0  0  0
  5  3  1  0  0  0  0
  6  1  2  0  0  0  0
  7  6  1  0  0  0  0
  8  3  2  0  0  0  0
  9  4  2  0  0  0  0
 10  5  1  0  0  0  0
 11 12  1  0  0  0  0
 12  9  1  0  0  0  0
 13  6  1  0  0  0  0
 14 15  2  0  0  0  0
 15 10  1  0  0  0  0
 16 10  2  0  0  0  0
 17 22  2  0  0  0  0
 18 11  2  0  0  0  0
 19 12  2  0  0  0  0
 20 13  2  0  0  0  0
 21 13  1  0  0  0  0
 22 16  1  0  0  0  0
 23 19  1  0  0  0  0
 24 23  2  0  0  0  0
 25 21  2  0  0  0  0
 26 20  1  0  0  0  0
 27 25  1  0  0  0  0
  5  2  2  0  0  0  0
 11  8  1  0  0  0  0
 27 26  2  0  0  0  0
 18 24  1  0  0  0  0
 14 17  1  0  0  0  0
M  END
> <#>
1647

> <PLATE>
LAT021

> <ROW>
G

> <COL>
7

> <COORD>
G07

> <LATID>
LAT021G07

> <Supplier>
Chembridge

> <Suplier_CAT#>
7981419

> <Name>
Novel

> <Concentration_(mM)>
2.5

> <IC50_(µM)>
49

> <Yeast_Active?>
-

> <Pubchem_CID>
NULL

$$$$
