
  -ISIS-  08130814242D

 10 10  0  0  0  0  0  0  0  0999 V2000
    1.0586   -0.3392    0.0000 C   0  0  0  0  0  0  0  0  0  0  0  0
    0.4336    0.7434    0.0000 C   0  0  0  0  0  0  0  0  0  0  0  0
    0.4336   -1.4217    0.0000 O   0  0  0  0  0  0  0  0  0  0  0  0
    2.3086   -0.3392    0.0000 C   0  0  0  0  0  0  0  0  0  0  0  0
    2.9336    0.7434    0.0000 C   0  0  0  0  0  0  0  0  0  0  0  0
    4.1836    0.7434    0.0000 C   0  0  0  0  0  0  0  0  0  0  0  0
    4.8086   -0.3392    0.0000 C   0  0  0  0  0  0  0  0  0  0  0  0
    4.1836   -1.4217    0.0000 C   0  0  0  0  0  0  0  0  0  0  0  0
    2.9336   -1.4217    0.0000 C   0  0  0  0  0  0  0  0  0  0  0  0
    4.8086    1.8259    0.0000 O   0  0  0  0  0  0  0  0  0  0  0  0
  1  2  1  0  0  0  0
  4  5  1  0  0  0  0
  5  6  2  0  0  0  0
  6  7  1  0  0  0  0
  7  8  2  0  0  0  0
  8  9  1  0  0  0  0
  4  9  2  0  0  0  0
  1  3  2  0  0  0  0
  1  4  1  0  0  0  0
  6 10  1  0  0  0  0
M  END
> <#>
361

> <PLATE>
LAT005

> <ROW>
A

> <COL>
7

> <COORD>
A07

> <LATID>
LAT005A07

> <Supplier>
Aldrich

> <Suplier_CAT#>
328103

> <Name>
3'-Hydroxyacetophenone

> <Concentration_(mM)>
2.5

> <IC50_(µM)>
>100

> <Yeast_Active?>
-

> <Pubchem_CID>
8487

$$$$
