
  -ISIS-  08130814242D

 25 27  0  0  0  0  0  0  0  0999 V2000
    1.3000   -0.3000    0.0000 C   0  0  0  0  0  0  0  0  0  0  0  0
    1.3000    0.6125    0.0000 N   0  0  0  0  0  0  0  0  0  0  0  0
    2.0875   -0.7792    0.0000 N   0  0  0  0  0  0  0  0  0  0  0  0
   -0.2958    0.6125    0.0000 C   0  0  0  0  0  0  0  0  0  0  0  0
    0.5167    1.0625    0.0000 C   0  0  0  0  0  0  0  0  0  0  0  0
   -0.2958   -0.3000    0.0000 S   0  0  0  0  0  0  0  0  0  0  0  0
    2.8792   -0.3000    0.0000 C   0  0  0  0  0  0  0  0  0  0  0  0
   -1.1333    1.0625    0.0000 C   0  0  0  0  0  0  0  0  0  0  0  0
    0.5167    2.0208    0.0000 O   0  0  0  0  0  0  0  0  0  0  0  0
   -3.6208   -0.3500    0.0000 C   0  0  0  0  0  0  0  0  0  0  0  0
    2.8792    0.6125    0.0000 O   0  0  0  0  0  0  0  0  0  0  0  0
   -4.4458   -0.8292    0.0000 N   0  0  3  0  0  0  0  0  0  0  0  0
    3.6542   -0.7792    0.0000 C   0  0  0  0  0  0  0  0  0  0  0  0
   -1.9500    0.5708    0.0000 C   0  0  0  0  0  0  0  0  0  0  0  0
   -2.7833   -0.8292    0.0000 C   0  0  0  0  0  0  0  0  0  0  0  0
   -3.6208    0.6125    0.0000 C   0  0  0  0  0  0  0  0  0  0  0  0
   -1.9500   -0.3500    0.0000 C   0  0  0  0  0  0  0  0  0  0  0  0
   -2.7708    1.0833    0.0000 C   0  0  0  0  0  0  0  0  0  0  0  0
   -5.2708   -0.3500    0.0000 C   0  0  0  0  0  0  0  0  0  0  0  0
   -4.4458   -1.7792    0.0000 C   0  0  0  0  0  0  0  0  0  0  0  0
    3.6542   -1.6875    0.0000 C   0  0  0  0  0  0  0  0  0  0  0  0
    4.4500   -0.3167    0.0000 C   0  0  0  0  0  0  0  0  0  0  0  0
    4.4542   -2.1375    0.0000 C   0  0  0  0  0  0  0  0  0  0  0  0
    5.2167   -0.7792    0.0000 C   0  0  0  0  0  0  0  0  0  0  0  0
    5.2375   -1.6875    0.0000 C   0  0  0  0  0  0  0  0  0  0  0  0
  2  1  1  0  0  0  0
  3  1  2  0  0  0  0
  4  6  1  0  0  0  0
  5  2  1  0  0  0  0
  6  1  1  0  0  0  0
  7  3  1  0  0  0  0
  8  4  2  0  0  0  0
  9  5  2  0  0  0  0
 10 16  1  0  0  0  0
 11  7  2  0  0  0  0
 12 10  1  0  0  0  0
 13  7  1  0  0  0  0
 14  8  1  0  0  0  0
 15 17  1  0  0  0  0
 16 18  2  0  0  0  0
 17 14  2  0  0  0  0
 18 14  1  0  0  0  0
 19 12  1  0  0  0  0
 20 12  1  0  0  0  0
 21 13  1  0  0  0  0
 22 13  2  0  0  0  0
 23 21  2  0  0  0  0
 24 22  1  0  0  0  0
 25 24  2  0  0  0  0
  4  5  1  0  0  0  0
 15 10  2  0  0  0  0
 25 23  1  0  0  0  0
M  END
> <#>
1981

> <PLATE>
LAT025

> <ROW>
E

> <COL>
9

> <COORD>
E09

> <LATID>
LAT025E09

> <Supplier>
Chembridge

> <Suplier_CAT#>
5479824

> <Sec_Name>
140_E03

> <Concentration_(mM)>
2.5

> <IC50_(µM)>
inactive

> <Yeast_Active?>
-

> <Pubchem_CID>
NULL

$$$$
