
  -ISIS-  08130814242D

 24 26  0  0  0  0  0  0  0  0999 V2000
    1.3167   -3.2000    0.0000 C   0  0  0  0  0  0  0  0  0  0  0  0
    5.8667   -5.8167    0.0000 N   0  3  0  0  0  0  0  0  0  0  0  0
    0.6667   -3.5792    0.0000 C   0  0  0  0  0  0  0  0  0  0  0  0
    1.9667   -3.5792    0.0000 N   0  0  3  0  0  0  0  0  0  0  0  0
    3.2667   -4.3292    0.0000 N   0  0  3  0  0  0  0  0  0  0  0  0
    5.2167   -5.4500    0.0000 C   0  0  0  0  0  0  0  0  0  0  0  0
    5.8792   -6.5667    0.0000 O   0  5  0  0  0  0  0  0  0  0  0  0
    3.9167   -4.7000    0.0000 C   0  0  0  0  0  0  0  0  0  0  0  0
    0.0167   -3.2000    0.0000 C   0  0  0  0  0  0  0  0  0  0  0  0
    6.5167   -5.4500    0.0000 O   0  0  0  0  0  0  0  0  0  0  0  0
    1.3167   -2.4500    0.0000 O   0  0  0  0  0  0  0  0  0  0  0  0
    2.6167   -3.2042    0.0000 C   0  0  0  0  0  0  0  0  0  0  0  0
    1.9667   -4.3292    0.0000 C   0  0  0  0  0  0  0  0  0  0  0  0
    3.2667   -3.5792    0.0000 C   0  0  0  0  0  0  0  0  0  0  0  0
    2.6167   -4.7042    0.0000 C   0  0  0  0  0  0  0  0  0  0  0  0
    4.5667   -5.8167    0.0000 C   0  0  0  0  0  0  0  0  0  0  0  0
    5.2042   -4.7000    0.0000 C   0  0  0  0  0  0  0  0  0  0  0  0
    4.5542   -4.3167    0.0000 C   0  0  0  0  0  0  0  0  0  0  0  0
    3.9167   -5.4500    0.0000 C   0  0  0  0  0  0  0  0  0  0  0  0
    0.0167   -2.4500    0.0000 I   0  0  0  0  0  0  0  0  0  0  0  0
    0.6667   -4.3500    0.0000 C   0  0  0  0  0  0  0  0  0  0  0  0
   -0.6125   -3.5792    0.0000 C   0  0  0  0  0  0  0  0  0  0  0  0
    0.0167   -4.7042    0.0000 C   0  0  0  0  0  0  0  0  0  0  0  0
   -0.6125   -4.3500    0.0000 C   0  0  0  0  0  0  0  0  0  0  0  0
  2  6  1  0  0  0  0
  3  1  1  0  0  0  0
  4  1  1  0  0  0  0
  5 15  1  0  0  0  0
  6 16  2  0  0  0  0
  7  2  1  0  0  0  0
  8  5  1  0  0  0  0
  9  3  2  0  0  0  0
 10  2  2  0  0  0  0
 11  1  2  0  0  0  0
 12  4  1  0  0  0  0
 13  4  1  0  0  0  0
 14 12  1  0  0  0  0
 15 13  1  0  0  0  0
 16 19  1  0  0  0  0
 17 18  2  0  0  0  0
 18  8  1  0  0  0  0
 19  8  2  0  0  0  0
 20  9  1  0  0  0  0
 21  3  1  0  0  0  0
 22  9  1  0  0  0  0
 23 21  2  0  0  0  0
 24 23  1  0  0  0  0
  5 14  1  0  0  0  0
 22 24  2  0  0  0  0
 17  6  1  0  0  0  0
M  CHG  2   2   1   7  -1
M  END
> <#>
851

> <PLATE>
LAT011

> <ROW>
C

> <COL>
8

> <COORD>
C08

> <LATID>
LAT011C08

> <Supplier>
Chembridge

> <Suplier_CAT#>
5650569

> <Name>
Novel

> <Sec_Name>
200_G03

> <Concentration_(mM)>
2.5

> <IC50_(µM)>
32

> <Yeast_Active?>
-

> <Pubchem_CID>
2858170

$$$$
