
  -ISIS-  08130814242D

 18 19  0  0  0  0  0  0  0  0999 V2000
    4.2875   -3.3000    0.0000 N   0  3  0  0  0  0  0  0  0  0  0  0
    3.5667   -2.8792    0.0000 C   0  0  0  0  0  0  0  0  0  0  0  0
    4.2875   -4.1167    0.0000 O   0  5  0  0  0  0  0  0  0  0  0  0
    0.0000   -1.6542    0.0000 C   0  0  0  0  0  0  0  0  0  0  0  0
    5.0000   -2.8792    0.0000 O   0  0  0  0  0  0  0  0  0  0  0  0
    0.0000   -2.4875    0.0000 C   0  0  0  0  0  0  0  0  0  0  0  0
    0.7042   -1.2500    0.0000 C   0  0  0  0  0  0  0  0  0  0  0  0
    3.5667   -2.0542    0.0000 C   0  0  0  0  0  0  0  0  0  0  0  0
    2.8542   -3.3000    0.0000 C   0  0  0  0  0  0  0  0  0  0  0  0
    1.4167   -1.6500    0.0000 O   0  0  0  0  0  0  0  0  0  0  0  0
    2.1292   -2.0542    0.0000 C   0  0  0  0  0  0  0  0  0  0  0  0
    0.7042   -2.9000    0.0000 Cl  0  0  0  0  0  0  0  0  0  0  0  0
    2.1500   -2.8875    0.0000 C   0  0  0  0  0  0  0  0  0  0  0  0
    2.8542   -1.6500    0.0000 C   0  0  0  0  0  0  0  0  0  0  0  0
   -0.7208   -1.2500    0.0000 C   0  0  0  0  0  0  0  0  0  0  0  0
   -0.7208   -2.9000    0.0000 C   0  0  0  0  0  0  0  0  0  0  0  0
   -1.4333   -1.6542    0.0000 C   0  0  0  0  0  0  0  0  0  0  0  0
   -1.4333   -2.4875    0.0000 C   0  0  0  0  0  0  0  0  0  0  0  0
  2  1  1  0  0  0  0
  3  1  1  0  0  0  0
  4  7  1  0  0  0  0
  5  1  2  0  0  0  0
  6  4  1  0  0  0  0
  7 10  1  0  0  0  0
  8  2  1  0  0  0  0
  9  2  2  0  0  0  0
 10 11  1  0  0  0  0
 11 13  2  0  0  0  0
 12  6  1  0  0  0  0
 13  9  1  0  0  0  0
 14  8  2  0  0  0  0
 15  4  2  0  0  0  0
 16  6  2  0  0  0  0
 17 15  1  0  0  0  0
 18 17  2  0  0  0  0
 11 14  1  0  0  0  0
 16 18  1  0  0  0  0
M  CHG  2   1   1   3  -1
M  END
> <#>
1901

> <PLATE>
LAT024

> <ROW>
E

> <COL>
9

> <COORD>
E09

> <LATID>
LAT024E09

> <Supplier>
Chembridge

> <Suplier_CAT#>
6370521

> <Name>
S001 D08

> <Sec_Name>
Nifoxyben

> <Concentration_(mM)>
2.5

> <IC50_(µM)>
10

> <Yeast_Active?>
-

> <Pubchem_CID>
707738

> <Comment>
SS17, Cobtorin

$$$$
