
  -ISIS-  08130814242D

 25 28  0  0  0  0  0  0  0  0999 V2000
    8.2875    1.6000    0.0000 N   0  0  3  0  0  0  0  0  0  0  0  0
    8.9375    1.9750    0.0000 C   0  0  0  0  0  0  0  0  0  0  0  0
    9.6250    1.6708    0.0000 N   0  0  0  0  0  0  0  0  0  0  0  0
    7.6042    1.9083    0.0000 C   0  0  0  0  0  0  0  0  0  0  0  0
    8.2042    0.8583    0.0000 C   0  0  0  0  0  0  0  0  0  0  0  0
    7.1000    1.3500    0.0000 C   0  0  0  0  0  0  0  0  0  0  0  0
   10.1250    2.2333    0.0000 C   0  0  0  0  0  0  0  0  0  0  0  0
    7.4750    0.7000    0.0000 C   0  0  0  0  0  0  0  0  0  0  0  0
    9.7500    2.8833    0.0000 N   0  0  0  0  0  0  0  0  0  0  0  0
    9.0167    2.7208    0.0000 N   0  0  0  0  0  0  0  0  0  0  0  0
    6.3500    1.3500    0.0000 C   0  0  0  0  0  0  0  0  0  0  0  0
   10.8667    2.1500    0.0000 C   0  0  0  0  0  0  0  0  0  0  0  0
    5.9750    0.7000    0.0000 C   0  0  0  0  0  0  0  0  0  0  0  0
    5.2250    0.7000    0.0000 C   0  0  0  0  0  0  0  0  0  0  0  0
    7.1000    0.0500    0.0000 C   0  0  0  0  0  0  0  0  0  0  0  0
    7.4417    2.6458    0.0000 O   0  0  0  0  0  0  0  0  0  0  0  0
    8.7667    0.3583    0.0000 O   0  0  0  0  0  0  0  0  0  0  0  0
    6.3500    0.0500    0.0000 C   0  0  0  0  0  0  0  0  0  0  0  0
    4.8500    0.0500    0.0000 O   0  0  0  0  0  0  0  0  0  0  0  0
   11.9167    1.3875    0.0000 N   0  0  0  0  0  0  0  0  0  0  0  0
    4.8500    1.3500    0.0000 O   0  0  0  0  0  0  0  0  0  0  0  0
   11.1750    1.4708    0.0000 C   0  0  0  0  0  0  0  0  0  0  0  0
   11.3125    2.7583    0.0000 C   0  0  0  0  0  0  0  0  0  0  0  0
   12.3625    1.9958    0.0000 C   0  0  0  0  0  0  0  0  0  0  0  0
   12.0542    2.6833    0.0000 C   0  0  0  0  0  0  0  0  0  0  0  0
  2  1  1  0  0  0  0
  3  2  2  0  0  0  0
  4  1  1  0  0  0  0
  5  1  1  0  0  0  0
  6  4  1  0  0  0  0
  7  3  1  0  0  0  0
  8  5  1  0  0  0  0
  9 10  1  0  0  0  0
 10  2  1  0  0  0  0
 11  6  2  0  0  0  0
 12  7  1  0  0  0  0
 13 11  1  0  0  0  0
 14 13  1  0  0  0  0
 15  8  2  0  0  0  0
 16  4  2  0  0  0  0
 17  5  2  0  0  0  0
 18 15  1  0  0  0  0
 19 14  2  0  0  0  0
 20 22  2  0  0  0  0
 21 14  1  0  0  0  0
 22 12  1  0  0  0  0
 23 12  2  0  0  0  0
 24 25  2  0  0  0  0
 25 23  1  0  0  0  0
  8  6  1  0  0  0  0
  9  7  2  0  0  0  0
 13 18  2  0  0  0  0
 24 20  1  0  0  0  0
M  END
> <#>
1700

> <PLATE>
LAT022

> <ROW>
D

> <COL>
4

> <COORD>
D04

> <LATID>
LAT022D04

> <Supplier>
Chembridge

> <Suplier_CAT#>
7954031

> <Name>
Novel

> <Concentration_(mM)>
2.5

> <IC50_(µM)>
inactive

> <Yeast_Active?>
-

> <Pubchem_CID>
NULL

$$$$
