
  -ISIS-  08130814242D

 31 32  0  0  0  0  0  0  0  0999 V2000
    8.8661   -1.4201    0.0000 C   0  0  0  0  0  0  0  0  0  0  0  0
    8.5556   -0.5835    0.0000 C   0  0  0  0  0  0  0  0  0  0  0  0
    7.6758   -0.4342    0.0000 C   0  0  0  0  0  0  0  0  0  0  0  0
    7.3653    0.4024    0.0000 C   0  0  0  0  0  0  0  0  0  0  0  0
    6.4856    0.5517    0.0000 O   0  0  0  0  0  0  0  0  0  0  0  0
    5.9164   -0.1355    0.0000 C   0  0  1  0  0  0  0  0  0  0  0  0
    5.1464   -0.5866    0.0000 C   0  0  0  0  0  0  0  0  0  0  0  0
    4.3708   -0.1454    0.0000 C   0  0  0  0  0  0  0  0  0  0  0  0
    3.6009   -0.5964    0.0000 C   0  0  0  0  0  0  0  0  0  0  0  0
    2.8253   -0.1552    0.0000 C   0  0  2  0  0  0  0  0  0  0  0  0
    2.8197    0.7371    0.0000 C   0  0  0  0  0  0  0  0  0  0  0  0
    2.0554   -0.6063    0.0000 C   0  0  0  0  0  0  0  0  0  0  0  0
    1.2798   -0.1650    0.0000 C   0  0  0  0  0  0  0  0  0  0  0  0
    0.5099   -0.6161    0.0000 C   0  0  0  0  0  0  0  0  0  0  0  0
   -0.2657   -0.1749    0.0000 C   0  0  2  0  0  0  0  0  0  0  0  0
   -0.2714    0.7174    0.0000 C   0  0  0  0  0  0  0  0  0  0  0  0
   -1.0356   -0.6260    0.0000 C   0  0  0  0  0  0  0  0  0  0  0  0
   -1.8112   -0.1847    0.0000 C   0  0  0  0  0  0  0  0  0  0  0  0
   -2.5811   -0.6358    0.0000 C   0  0  0  0  0  0  0  0  0  0  0  0
   -3.3567   -0.1946    0.0000 C   0  0  3  0  0  0  0  0  0  0  0  0
   -4.1266   -0.6457    0.0000 C   0  0  0  0  0  0  0  0  0  0  0  0
   -3.3624    0.6977    0.0000 C   0  0  0  0  0  0  0  0  0  0  0  0
    5.3384    0.5444    0.0000 C   0  0  0  0  0  0  0  0  0  0  0  0
    6.2269   -0.9720    0.0000 C   0  0  0  0  0  0  0  0  0  0  0  0
    7.1066   -1.1214    0.0000 C   0  0  0  0  0  0  0  0  0  0  0  0
    7.9345    1.0895    0.0000 C   0  0  0  0  0  0  0  0  0  0  0  0
    7.6240    1.9261    0.0000 C   0  0  0  0  0  0  0  0  0  0  0  0
    8.8142    0.9402    0.0000 C   0  0  0  0  0  0  0  0  0  0  0  0
    9.3834    1.6274    0.0000 C   0  0  0  0  0  0  0  0  0  0  0  0
    9.1248    0.1037    0.0000 C   0  0  0  0  0  0  0  0  0  0  0  0
   10.0045   -0.0457    0.0000 O   0  0  0  0  0  0  0  0  0  0  0  0
  1  2  1  0  0  0  0
  2  3  2  0  0  0  0
  3  4  1  0  0  0  0
  4  5  1  0  0  0  0
  5  6  1  0  0  0  0
  6  7  1  1  0  0  0
  7  8  1  0  0  0  0
  8  9  1  0  0  0  0
  9 10  1  0  0  0  0
 10 11  1  1  0  0  0
 10 12  1  0  0  0  0
 12 13  1  0  0  0  0
 13 14  1  0  0  0  0
 14 15  1  0  0  0  0
 15 16  1  1  0  0  0
 15 17  1  0  0  0  0
 17 18  1  0  0  0  0
 18 19  1  0  0  0  0
 19 20  1  0  0  0  0
 20 21  1  0  0  0  0
 20 22  1  0  0  0  0
  6 23  1  6  0  0  0
  6 24  1  0  0  0  0
 24 25  1  0  0  0  0
  3 25  1  0  0  0  0
  4 26  2  0  0  0  0
 26 27  1  0  0  0  0
 26 28  1  0  0  0  0
 28 29  1  0  0  0  0
 28 30  2  0  0  0  0
  2 30  1  0  0  0  0
 30 31  1  0  0  0  0
M  END
> <#>
468

> <PLATE>
LAT006

> <ROW>
D

> <COL>
10

> <COORD>
D10

> <LATID>
LAT006D10

> <Supplier>
Sigma

> <Suplier_CAT#>
T3251

> <Name>
(+-)-Alpha-Tocopherol

> <Concentration_(mM)>
2.5

> <IC50_(µM)>
inactive

> <Yeast_Active?>
-

> <Pubchem_CID>
2116

$$$$
