
  -ISIS-  08130814242D

 31 34  0  0  0  0  0  0  0  0999 V2000
   -3.5061   -5.7146    0.0000 C   0  0  3  0  0  0  0  0  0  0  0  0
   -3.5061   -4.4646    0.0000 C   0  0  0  0  0  0  0  0  0  0  0  0
   -2.4236   -3.8396    0.0000 C   0  0  0  0  0  0  0  0  0  0  0  0
   -2.4236   -6.3396    0.0000 C   0  0  0  0  0  0  0  0  0  0  0  0
   -1.3411   -5.7146    0.0000 C   0  0  0  0  0  0  0  0  0  0  0  0
   -0.2585   -6.3396    0.0000 C   0  0  0  0  0  0  0  0  0  0  0  0
    0.8240   -5.7146    0.0000 C   0  0  0  0  0  0  0  0  0  0  0  0
    0.8240   -4.4646    0.0000 C   0  0  1  0  0  0  0  0  0  0  0  0
    1.9065   -3.8396    0.0000 C   0  0  2  0  0  0  0  0  0  0  0  0
    3.0954   -4.2259    0.0000 C   0  0  0  0  0  0  0  0  0  0  0  0
    3.8301   -3.2146    0.0000 C   0  0  0  0  0  0  0  0  0  0  0  0
    3.0954   -2.2033    0.0000 C   0  0  2  0  0  0  0  0  0  0  0  0
    3.4816   -1.0145    0.0000 C   0  0  1  0  0  0  0  0  0  0  0  0
    4.6890   -0.6910    0.0000 C   0  0  0  0  0  0  0  0  0  0  0  0
    5.0126    0.5164    0.0000 C   0  0  0  0  0  0  0  0  0  0  0  0
    6.2200    0.8400    0.0000 C   0  0  0  0  0  0  0  0  0  0  0  0
    6.5435    2.0474    0.0000 C   0  0  3  0  0  0  0  0  0  0  0  0
    7.7509    2.3709    0.0000 C   0  0  0  0  0  0  0  0  0  0  0  0
    5.6596    2.9313    0.0000 C   0  0  0  0  0  0  0  0  0  0  0  0
    2.5977   -0.1306    0.0000 C   0  0  0  0  0  0  0  0  0  0  0  0
    1.9065   -2.5896    0.0000 C   0  0  2  0  0  0  0  0  0  0  0  0
    1.9065   -1.3396    0.0000 C   0  0  0  0  0  0  0  0  0  0  0  0
    0.8240   -1.9646    0.0000 C   0  0  0  0  0  0  0  0  0  0  0  0
   -0.2585   -2.5896    0.0000 C   0  0  0  0  0  0  0  0  0  0  0  0
   -0.2585   -3.8396    0.0000 C   0  0  2  0  0  0  0  0  0  0  0  0
   -1.3411   -4.4646    0.0000 C   0  0  1  0  0  0  0  0  0  0  0  0
   -1.3411   -3.2146    0.0000 C   0  0  0  0  0  0  0  0  0  0  0  0
   -4.5887   -6.3396    0.0000 O   0  0  0  0  0  0  0  0  0  0  0  0
   -0.2585   -5.0896    0.0000 H   0  0  0  0  0  0  0  0  0  0  0  0
    0.8240   -3.2146    0.0000 H   0  0  0  0  0  0  0  0  0  0  0  0
    1.9065   -5.0896    0.0000 H   0  0  0  0  0  0  0  0  0  0  0  0
  1  2  1  0  0  0  0
  2  3  1  0  0  0  0
  1  4  1  0  0  0  0
  4  5  1  0  0  0  0
  5  6  2  0  0  0  0
  6  7  1  0  0  0  0
  7  8  1  0  0  0  0
  8  9  1  0  0  0  0
  9 10  1  0  0  0  0
 10 11  1  0  0  0  0
 12 11  1  1  0  0  0
 12 13  1  0  0  0  0
 13 14  1  0  0  0  0
 14 15  1  0  0  0  0
 15 16  1  0  0  0  0
 16 17  1  0  0  0  0
 17 18  1  0  0  0  0
 17 19  1  0  0  0  0
 13 20  1  6  0  0  0
 12 21  1  0  0  0  0
  9 21  1  0  0  0  0
 21 22  1  1  0  0  0
 21 23  1  0  0  0  0
 23 24  1  0  0  0  0
 24 25  1  0  0  0  0
  8 25  1  0  0  0  0
 25 26  1  0  0  0  0
  3 26  1  0  0  0  0
  5 26  1  0  0  0  0
 26 27  1  1  0  0  0
  1 28  1  0  0  0  0
 25 29  1  6  0  0  0
  8 30  1  1  0  0  0
  9 31  1  6  0  0  0
M  END
> <#>
333

> <PLATE>
LAT005

> <ROW>
E

> <COL>
3

> <COORD>
E03

> <LATID>
LAT005E03

> <Supplier>
ICN

> <Suplier_CAT#>
101381

> <Name>
Cholesterol

> <Concentration_(mM)>
2.5

> <IC50_(µM)>
inactive

> <Yeast_Active?>
-

> <Pubchem_CID>
304

$$$$
