
  -ISIS-  08130814242D

 29 32  0  0  0  0  0  0  0  0999 V2000
    5.1417    3.1833    0.0000 N   0  0  3  0  0  0  0  0  0  0  0  0
    5.1417    2.4333    0.0000 C   0  0  0  0  0  0  0  0  0  0  0  0
    4.4292    3.4083    0.0000 N   0  0  0  0  0  0  0  0  0  0  0  0
    3.9875    2.8083    0.0000 C   0  0  0  0  0  0  0  0  0  0  0  0
    5.7917    3.5583    0.0000 C   0  0  3  0  0  0  0  0  0  0  0  0
    4.4292    2.1958    0.0000 C   0  0  0  0  0  0  0  0  0  0  0  0
    5.7917    2.0583    0.0000 N   0  0  0  0  0  0  0  0  0  0  0  0
    5.7917    4.2917    0.0000 C   0  0  3  0  0  0  0  0  0  0  0  0
    6.4417    3.1833    0.0000 C   0  0  0  0  0  0  0  0  0  0  0  0
    3.2375    2.8083    0.0000 C   0  0  0  0  0  0  0  0  0  0  0  0
    6.4417    2.4333    0.0000 C   0  0  3  0  0  0  0  0  0  0  0  0
    2.8625    2.1583    0.0000 N   0  0  0  0  0  0  0  0  0  0  0  0
    0.9875    1.5083    0.0000 N   0  0  0  0  0  0  0  0  0  0  0  0
    2.8625    3.4583    0.0000 O   0  0  0  0  0  0  0  0  0  0  0  0
    7.0875    2.0583    0.0000 C   0  0  0  0  0  0  0  0  0  0  0  0
    6.5167    4.4917    0.0000 F   0  0  0  0  0  0  0  0  0  0  0  0
    5.6542    5.0292    0.0000 F   0  0  0  0  0  0  0  0  0  0  0  0
    5.0417    4.2292    0.0000 F   0  0  0  0  0  0  0  0  0  0  0  0
    2.1125    2.1583    0.0000 C   0  0  0  0  0  0  0  0  0  0  0  0
    1.7375    1.5083    0.0000 C   0  0  0  0  0  0  0  0  0  0  0  0
    0.6125    0.8583    0.0000 C   0  0  0  0  0  0  0  0  0  0  0  0
    7.0875    1.3083    0.0000 C   0  0  0  0  0  0  0  0  0  0  0  0
    7.7375    2.4333    0.0000 C   0  0  0  0  0  0  0  0  0  0  0  0
    2.1125    0.8583    0.0000 C   0  0  0  0  0  0  0  0  0  0  0  0
    0.9875    0.2083    0.0000 C   0  0  0  0  0  0  0  0  0  0  0  0
    7.7375    0.9333    0.0000 C   0  0  0  0  0  0  0  0  0  0  0  0
    8.3875    2.0583    0.0000 C   0  0  0  0  0  0  0  0  0  0  0  0
    1.7375    0.2083    0.0000 C   0  0  0  0  0  0  0  0  0  0  0  0
    8.3875    1.3083    0.0000 C   0  0  0  0  0  0  0  0  0  0  0  0
  2  1  1  0  0  0  0
  3  1  1  0  0  0  0
  4  3  2  0  0  0  0
  5  1  1  0  0  0  0
  6  2  2  0  0  0  0
  7  2  1  0  0  0  0
  8  5  1  0  0  0  0
  9  5  1  0  0  0  0
 10  4  1  0  0  0  0
 11  9  1  0  0  0  0
 12 10  1  0  0  0  0
 13 20  2  0  0  0  0
 14 10  2  0  0  0  0
 15 11  1  0  0  0  0
 16  8  1  0  0  0  0
 17  8  1  0  0  0  0
 18  8  1  0  0  0  0
 19 12  1  0  0  0  0
 20 19  1  0  0  0  0
 21 13  1  0  0  0  0
 22 15  1  0  0  0  0
 23 15  2  0  0  0  0
 24 20  1  0  0  0  0
 25 28  1  0  0  0  0
 26 22  2  0  0  0  0
 27 23  1  0  0  0  0
 28 24  2  0  0  0  0
 29 27  2  0  0  0  0
  4  6  1  0  0  0  0
  7 11  1  0  0  0  0
 26 29  1  0  0  0  0
 25 21  2  0  0  0  0
M  END
> <#>
1504

> <PLATE>
LAT019

> <ROW>
H

> <COL>
9

> <COORD>
H09

> <LATID>
LAT019H09

> <Supplier>
Chembridge

> <Suplier_CAT#>
7950436

> <Name>
Novel

> <Concentration_(mM)>
2.5

> <IC50_(µM)>
75

> <Yeast_Active?>
-

> <Pubchem_CID>
NULL

$$$$
