
  -ISIS-  08130814242D

 27 29  0  0  0  0  0  0  0  0999 V2000
   -3.7125    0.3958    0.0000 C   0  0  0  0  0  0  0  0  0  0  0  0
   -4.8500    0.3958    0.0000 C   0  0  3  0  0  0  0  0  0  0  0  0
   -2.0125   -0.6292    0.0000 N   0  0  0  0  0  0  0  0  0  0  0  0
   -3.1500   -0.6042    0.0000 N   0  0  0  0  0  0  0  0  0  0  0  0
   -3.1500    1.3708    0.0000 O   0  0  0  0  0  0  0  0  0  0  0  0
   -4.8500    1.5333    0.0000 C   0  0  0  0  0  0  0  0  0  0  0  0
   -4.8500   -0.7667    0.0000 C   0  0  0  0  0  0  0  0  0  0  0  0
   -1.4500   -1.6042    0.0000 C   0  0  0  0  0  0  0  0  0  0  0  0
   -5.9958    0.3958    0.0000 O   0  0  0  0  0  0  0  0  0  0  0  0
    1.9875   -1.5875    0.0000 C   0  0  0  0  0  0  0  0  0  0  0  0
   -0.3125   -1.5875    0.0000 C   0  0  0  0  0  0  0  0  0  0  0  0
    3.1292   -1.5875    0.0000 S   0  0  0  0  0  0  0  0  0  0  0  0
    1.4042   -2.5667    0.0000 C   0  0  0  0  0  0  0  0  0  0  0  0
    1.4042   -0.5875    0.0000 C   0  0  0  0  0  0  0  0  0  0  0  0
    0.2667   -2.5667    0.0000 C   0  0  0  0  0  0  0  0  0  0  0  0
    0.2667   -0.6042    0.0000 C   0  0  0  0  0  0  0  0  0  0  0  0
   -5.8500    2.0958    0.0000 C   0  0  0  0  0  0  0  0  0  0  0  0
   -3.8708    2.0958    0.0000 C   0  0  0  0  0  0  0  0  0  0  0  0
   -5.8333   -1.3292    0.0000 C   0  0  0  0  0  0  0  0  0  0  0  0
   -3.8708   -1.3292    0.0000 C   0  0  0  0  0  0  0  0  0  0  0  0
    3.6875   -2.5667    0.0000 C   0  0  0  0  0  0  0  0  0  0  0  0
   -5.8333   -2.4667    0.0000 C   0  0  0  0  0  0  0  0  0  0  0  0
   -3.8500   -2.4667    0.0000 C   0  0  0  0  0  0  0  0  0  0  0  0
   -5.8500    3.2333    0.0000 C   0  0  0  0  0  0  0  0  0  0  0  0
   -3.8958    3.2333    0.0000 C   0  0  0  0  0  0  0  0  0  0  0  0
   -4.8500   -3.0500    0.0000 C   0  0  0  0  0  0  0  0  0  0  0  0
   -4.8708    3.8125    0.0000 C   0  0  0  0  0  0  0  0  0  0  0  0
  2  1  1  0  0  0  0
  3  4  1  0  0  0  0
  4  1  1  0  0  0  0
  5  1  2  0  0  0  0
  6  2  1  0  0  0  0
  7  2  1  0  0  0  0
  8  3  2  0  0  0  0
  9  2  1  0  0  0  0
 10 14  2  0  0  0  0
 11  8  1  0  0  0  0
 12 10  1  0  0  0  0
 13 15  2  0  0  0  0
 14 16  1  0  0  0  0
 15 11  1  0  0  0  0
 16 11  2  0  0  0  0
 17  6  2  0  0  0  0
 18  6  1  0  0  0  0
 19  7  1  0  0  0  0
 20  7  2  0  0  0  0
 21 12  1  0  0  0  0
 22 19  2  0  0  0  0
 23 20  1  0  0  0  0
 24 17  1  0  0  0  0
 25 18  2  0  0  0  0
 26 23  2  0  0  0  0
 27 25  1  0  0  0  0
 26 22  1  0  0  0  0
 27 24  2  0  0  0  0
 10 13  1  0  0  0  0
M  END
> <#>
1771

> <PLATE>
LAT023

> <ROW>
C

> <COL>
3

> <COORD>
C03

> <LATID>
LAT023C03

> <Supplier>
Chembridge

> <Suplier_CAT#>
5529739

> <Name>
Novel

> <Sec_Name>
152_C10

> <Concentration_(mM)>
2.5

> <IC50_(µM)>
23

> <Yeast_Active?>
-

> <Pubchem_CID>
1368037

$$$$
