
  -ISIS-  08130814242D

 31 34  0  0  0  0  0  0  0  0999 V2000
    7.1750    1.7958    0.0000 C   0  0  0  0  0  0  0  0  0  0  0  0
    6.7375    2.4000    0.0000 N   0  0  3  0  0  0  0  0  0  0  0  0
    6.7375    1.1875    0.0000 N   0  0  0  0  0  0  0  0  0  0  0  0
    6.0167    2.1708    0.0000 C   0  0  0  0  0  0  0  0  0  0  0  0
    6.0167    1.4208    0.0000 N   0  0  0  0  0  0  0  0  0  0  0  0
    7.9250    1.7958    0.0000 C   0  0  0  0  0  0  0  0  0  0  0  0
    5.4167    2.6083    0.0000 S   0  0  0  0  0  0  0  0  0  0  0  0
    3.4375    2.4375    0.0000 N   0  0  0  0  0  0  0  0  0  0  0  0
    4.1250    2.7458    0.0000 C   0  0  0  0  0  0  0  0  0  0  0  0
    6.9667    3.1125    0.0000 C   0  0  0  0  0  0  0  0  0  0  0  0
    8.3000    1.1458    0.0000 C   0  0  0  0  0  0  0  0  0  0  0  0
    2.8292    2.8833    0.0000 C   0  0  3  0  0  0  0  0  0  0  0  0
    4.2042    3.4958    0.0000 O   0  0  0  0  0  0  0  0  0  0  0  0
    4.7292    2.3083    0.0000 C   0  0  0  0  0  0  0  0  0  0  0  0
    2.1417    2.5833    0.0000 C   0  0  0  0  0  0  0  0  0  0  0  0
    8.3000    2.4458    0.0000 C   0  0  0  0  0  0  0  0  0  0  0  0
    7.9250    0.4958    0.0000 O   0  0  0  0  0  0  0  0  0  0  0  0
    7.7000    3.2708    0.0000 C   0  0  0  0  0  0  0  0  0  0  0  0
    6.4667    3.6708    0.0000 C   0  0  0  0  0  0  0  0  0  0  0  0
    2.9125    3.6250    0.0000 C   0  0  0  0  0  0  0  0  0  0  0  0
    9.0500    1.1458    0.0000 C   0  0  0  0  0  0  0  0  0  0  0  0
    1.5417    3.0208    0.0000 C   0  0  0  0  0  0  0  0  0  0  0  0
    2.0667    1.8333    0.0000 C   0  0  0  0  0  0  0  0  0  0  0  0
    9.0500    2.4458    0.0000 C   0  0  0  0  0  0  0  0  0  0  0  0
    7.9292    3.9833    0.0000 C   0  0  0  0  0  0  0  0  0  0  0  0
    6.6917    4.3792    0.0000 C   0  0  0  0  0  0  0  0  0  0  0  0
    9.4250    1.7958    0.0000 C   0  0  0  0  0  0  0  0  0  0  0  0
    0.8542    2.7125    0.0000 C   0  0  0  0  0  0  0  0  0  0  0  0
    1.3792    1.5250    0.0000 C   0  0  0  0  0  0  0  0  0  0  0  0
    7.4292    4.5292    0.0000 C   0  0  0  0  0  0  0  0  0  0  0  0
    0.7750    1.9625    0.0000 C   0  0  0  0  0  0  0  0  0  0  0  0
  2  1  1  0  0  0  0
  3  1  2  0  0  0  0
  4  2  1  0  0  0  0
  5  3  1  0  0  0  0
  6  1  1  0  0  0  0
  7  4  1  0  0  0  0
  8  9  1  0  0  0  0
  9 14  1  0  0  0  0
 10  2  1  0  0  0  0
 11  6  2  0  0  0  0
 12  8  1  0  0  0  0
 13  9  2  0  0  0  0
 14  7  1  0  0  0  0
 15 12  1  0  0  0  0
 16  6  1  0  0  0  0
 17 11  1  0  0  0  0
 18 10  2  0  0  0  0
 19 10  1  0  0  0  0
 20 12  1  0  0  0  0
 21 11  1  0  0  0  0
 22 15  2  0  0  0  0
 23 15  1  0  0  0  0
 24 16  2  0  0  0  0
 25 18  1  0  0  0  0
 26 19  2  0  0  0  0
 27 24  1  0  0  0  0
 28 22  1  0  0  0  0
 29 23  2  0  0  0  0
 30 26  1  0  0  0  0
 31 29  1  0  0  0  0
  5  4  2  0  0  0  0
 27 21  2  0  0  0  0
 30 25  2  0  0  0  0
 28 31  2  0  0  0  0
M  END
> <#>
1740

> <PLATE>
LAT022

> <ROW>
D

> <COL>
9

> <COORD>
D09

> <LATID>
LAT022D09

> <Supplier>
Chembridge

> <Suplier_CAT#>
7930862

> <Name>
Novel

> <Concentration_(mM)>
2.5

> <IC50_(µM)>
inactive

> <Yeast_Active?>
-

> <Pubchem_CID>
NULL

$$$$
