
  -ISIS-  08130814242D

 19 20  0  0  0  0  0  0  0  0999 V2000
    1.2875   -9.8292    0.0000 S   0  0  3  0  0  0  0  0  0  0  0  0
    2.0375   -9.8375    0.0000 N   0  0  0  0  0  0  0  0  0  0  0  0
    0.5792   -9.8292    0.0000 C   0  0  0  0  0  0  0  0  0  0  0  0
    1.3000   -9.1167    0.0000 O   0  0  0  0  0  0  0  0  0  0  0  0
    1.2875  -10.5500    0.0000 O   0  0  0  0  0  0  0  0  0  0  0  0
    3.5500   -8.5542    0.0000 C   0  0  0  0  0  0  0  0  0  0  0  0
    2.4167   -9.2000    0.0000 C   0  0  0  0  0  0  0  0  0  0  0  0
    3.1792   -7.9000    0.0000 C   0  0  0  0  0  0  0  0  0  0  0  0
    3.1667   -9.2000    0.0000 C   0  0  0  0  0  0  0  0  0  0  0  0
    0.2167   -9.2042    0.0000 C   0  0  0  0  0  0  0  0  0  0  0  0
    0.2167  -10.4500    0.0000 C   0  0  0  0  0  0  0  0  0  0  0  0
    2.4292   -7.9000    0.0000 C   0  0  0  0  0  0  0  0  0  0  0  0
    2.0500   -8.5500    0.0000 C   0  0  0  0  0  0  0  0  0  0  0  0
   -0.8458   -9.8292    0.0000 C   0  0  0  0  0  0  0  0  0  0  0  0
    3.5542   -7.2500    0.0000 Br  0  0  0  0  0  0  0  0  0  0  0  0
   -0.4833   -9.2042    0.0000 C   0  0  0  0  0  0  0  0  0  0  0  0
   -0.4833  -10.4500    0.0000 C   0  0  0  0  0  0  0  0  0  0  0  0
   -1.5958   -9.8292    0.0000 F   0  0  0  0  0  0  0  0  0  0  0  0
    4.3000   -8.5542    0.0000 C   0  0  0  0  0  0  0  0  0  0  0  0
  2  1  1  0  0  0  0
  3  1  1  0  0  0  0
  4  1  2  0  0  0  0
  5  1  2  0  0  0  0
  6  9  1  0  0  0  0
  7  2  1  0  0  0  0
  8 12  1  0  0  0  0
  9  7  2  0  0  0  0
 10  3  2  0  0  0  0
 11  3  1  0  0  0  0
 12 13  2  0  0  0  0
 13  7  1  0  0  0  0
 14 17  1  0  0  0  0
 15  8  1  0  0  0  0
 16 10  1  0  0  0  0
 17 11  2  0  0  0  0
 18 14  1  0  0  0  0
 19  6  1  0  0  0  0
 16 14  2  0  0  0  0
  6  8  2  0  0  0  0
M  END
> <#>
1062

> <PLATE>
LAT014

> <ROW>
F

> <COL>
4

> <COORD>
F04

> <LATID>
LAT014F04

> <Supplier>
Chembridge

> <Suplier_CAT#>
5540265

> <Name>
Novel

> <Concentration_(mM)>
2.5

> <IC50_(µM)>
28

> <Yeast_Active?>
-

> <Pubchem_CID>
871316

$$$$
