
  -ISIS-  08130814242D

 31 33  0  0  0  0  0  0  0  0999 V2000
    6.0875   -2.9042    0.0000 C   0  0  0  0  0  0  0  0  0  0  0  0
   10.3792   -2.9000    0.0000 C   0  0  0  0  0  0  0  0  0  0  0  0
    8.9500   -2.9042    0.0000 C   0  0  0  0  0  0  0  0  0  0  0  0
    9.6667   -3.3125    0.0000 C   0  0  0  0  0  0  0  0  0  0  0  0
    8.2375   -3.3167    0.0000 C   0  0  0  0  0  0  0  0  0  0  0  0
    2.5042   -6.6417    0.0000 C   0  0  0  0  0  0  0  0  0  0  0  0
    2.5042   -5.8167    0.0000 N   0  0  0  0  0  0  0  0  0  0  0  0
    6.0875   -2.0792    0.0000 C   0  0  0  0  0  0  0  0  0  0  0  0
    6.8000   -3.3167    0.0000 C   0  0  0  0  0  0  0  0  0  0  0  0
   11.1000   -3.3125    0.0000 C   0  0  0  0  0  0  0  0  0  0  0  0
    5.3667   -3.3250    0.0000 C   0  0  0  0  0  0  0  0  0  0  0  0
    1.7917   -7.0542    0.0000 O   0  0  0  0  0  0  0  0  0  0  0  0
    9.6792   -4.1417    0.0000 O   0  0  0  0  0  0  0  0  0  0  0  0
    7.5167   -2.9042    0.0000 C   0  0  0  0  0  0  0  0  0  0  0  0
    6.8000   -1.6667    0.0000 C   0  0  0  0  0  0  0  0  0  0  0  0
    5.3667   -4.1542    0.0000 O   0  0  0  0  0  0  0  0  0  0  0  0
    3.2250   -5.3917    0.0000 C   0  0  0  0  0  0  0  0  0  0  0  0
    4.6542   -4.5667    0.0000 C   0  0  0  0  0  0  0  0  0  0  0  0
    7.5167   -2.0792    0.0000 C   0  0  0  0  0  0  0  0  0  0  0  0
   11.1000   -4.1292    0.0000 O   0  0  0  0  0  0  0  0  0  0  0  0
    3.2250   -4.5667    0.0000 C   0  0  0  0  0  0  0  0  0  0  0  0
    3.9417   -5.8042    0.0000 C   0  0  0  0  0  0  0  0  0  0  0  0
    5.3667   -1.6542    0.0000 O   0  0  0  0  0  0  0  0  0  0  0  0
    3.9417   -4.1542    0.0000 C   0  0  0  0  0  0  0  0  0  0  0  0
    4.6542   -5.3917    0.0000 C   0  0  0  0  0  0  0  0  0  0  0  0
   10.3792   -2.0667    0.0000 C   0  0  0  0  0  0  0  0  0  0  0  0
    3.2250   -7.0542    0.0000 C   0  0  0  0  0  0  0  0  0  0  0  0
   11.8167   -2.9000    0.0000 C   0  0  0  0  0  0  0  0  0  0  0  0
    5.3750   -0.8250    0.0000 C   0  0  0  0  0  0  0  0  0  0  0  0
   11.0917   -1.6542    0.0000 C   0  0  0  0  0  0  0  0  0  0  0  0
   11.8167   -2.0667    0.0000 C   0  0  0  0  0  0  0  0  0  0  0  0
  2  4  1  0  0  0  0
  3  5  2  0  0  0  0
  4  3  1  0  0  0  0
  5 14  1  0  0  0  0
  6  7  1  0  0  0  0
  7 17  1  0  0  0  0
  8  1  1  0  0  0  0
  9  1  2  0  0  0  0
 10  2  2  0  0  0  0
 11  1  1  0  0  0  0
 12  6  2  0  0  0  0
 13  4  2  0  0  0  0
 14  9  1  0  0  0  0
 15  8  2  0  0  0  0
 16 11  1  0  0  0  0
 17 22  1  0  0  0  0
 18 16  1  0  0  0  0
 19 14  2  0  0  0  0
 20 10  1  0  0  0  0
 21 24  1  0  0  0  0
 22 25  2  0  0  0  0
 23  8  1  0  0  0  0
 24 18  2  0  0  0  0
 25 18  1  0  0  0  0
 26  2  1  0  0  0  0
 27  6  1  0  0  0  0
 28 10  1  0  0  0  0
 29 23  1  0  0  0  0
 30 26  2  0  0  0  0
 31 30  1  0  0  0  0
 19 15  1  0  0  0  0
 21 17  2  0  0  0  0
 31 28  2  0  0  0  0
M  END
> <#>
1337

> <PLATE>
LAT017

> <ROW>
A

> <COL>
9

> <COORD>
A09

> <LATID>
LAT017A09

> <Supplier>
Chembridge

> <Suplier_CAT#>
7282346

> <Name>
Novel

> <Concentration_(mM)>
2.5

> <IC50_(µM)>
inactive

> <Yeast_Active?>
-

> <Pubchem_CID>
2933051

$$$$
