
  -ISIS-  08130814242D

 17 18  0  0  0  0  0  0  0  0999 V2000
   -1.2333    0.5458    0.0000 C   0  0  0  0  0  0  0  0  0  0  0  0
   -0.8125    1.3208    0.0000 C   0  0  0  0  0  0  0  0  0  0  0  0
   -2.1500    0.5333    0.0000 C   0  0  0  0  0  0  0  0  0  0  0  0
   -0.7833   -0.2667    0.0000 O   0  0  0  0  0  0  0  0  0  0  0  0
   -1.2500    2.1125    0.0000 O   0  0  0  0  0  0  0  0  0  0  0  0
    0.1000    1.3208    0.0000 C   0  0  0  0  0  0  0  0  0  0  0  0
   -2.6208   -0.2792    0.0000 C   0  0  0  0  0  0  0  0  0  0  0  0
   -2.6000    1.3125    0.0000 C   0  0  0  0  0  0  0  0  0  0  0  0
   -4.0000    0.5333    0.0000 C   0  0  0  0  0  0  0  0  0  0  0  0
   -3.5333    1.3208    0.0000 C   0  0  0  0  0  0  0  0  0  0  0  0
   -3.5458   -0.2667    0.0000 C   0  0  0  0  0  0  0  0  0  0  0  0
   -4.9208    0.5500    0.0000 O   0  0  0  0  0  0  0  0  0  0  0  0
    0.5667    2.1208    0.0000 C   0  0  0  0  0  0  0  0  0  0  0  0
    0.5542    0.5333    0.0000 C   0  0  0  0  0  0  0  0  0  0  0  0
    1.5000    2.1208    0.0000 C   0  0  0  0  0  0  0  0  0  0  0  0
    1.4792    0.5333    0.0000 C   0  0  0  0  0  0  0  0  0  0  0  0
    1.9500    1.3125    0.0000 C   0  0  0  0  0  0  0  0  0  0  0  0
  2  1  1  0  0  0  0
  3  1  1  0  0  0  0
  4  1  2  0  0  0  0
  5  2  2  0  0  0  0
  6  2  1  0  0  0  0
  7  3  2  0  0  0  0
  8  3  1  0  0  0  0
  9 10  1  0  0  0  0
 10  8  2  0  0  0  0
 11  7  1  0  0  0  0
 12  9  1  0  0  0  0
 13  6  2  0  0  0  0
 14  6  1  0  0  0  0
 15 13  1  0  0  0  0
 16 14  2  0  0  0  0
 17 16  1  0  0  0  0
  9 11  2  0  0  0  0
 15 17  2  0  0  0  0
M  END
> <#>
1157

> <PLATE>
LAT015

> <ROW>
E

> <COL>
6

> <COORD>
E06

> <LATID>
LAT015E06

> <Supplier>
Chembridge

> <Suplier_CAT#>
5128437

> <Name>
Novel

> <Concentration_(mM)>
2.5

> <IC50_(µM)>
81

> <Yeast_Active?>
-

> <Pubchem_CID>
142278

$$$$
