
  -ISIS-  08130814242D

 22 25  0  0  0  0  0  0  0  0999 V2000
    1.0875   -2.0542    0.0000 S   0  0  3  0  0  0  0  0  0  0  0  0
    1.9292   -1.8375    0.0000 C   0  0  0  0  0  0  0  0  0  0  0  0
    4.0875    0.0833    0.0000 C   0  0  0  0  0  0  0  0  0  0  0  0
    4.3667   -0.7000    0.0000 N   0  0  0  0  0  0  0  0  0  0  0  0
    2.9875   -0.8000    0.0000 C   0  0  0  0  0  0  0  0  0  0  0  0
    3.7042   -1.2542    0.0000 C   0  0  0  0  0  0  0  0  0  0  0  0
    2.1500   -1.0167    0.0000 C   0  0  0  0  0  0  0  0  0  0  0  0
    0.8667   -1.2167    0.0000 N   0  0  3  0  0  0  0  0  0  0  0  0
    3.2292    0.0458    0.0000 C   0  0  0  0  0  0  0  0  0  0  0  0
    1.3042   -2.9000    0.0000 O   0  0  0  0  0  0  0  0  0  0  0  0
    0.2500   -2.2792    0.0000 O   0  0  0  0  0  0  0  0  0  0  0  0
    2.5292   -2.4542    0.0000 C   0  0  0  0  0  0  0  0  0  0  0  0
    3.6875   -2.1167    0.0000 C   0  0  0  0  0  0  0  0  0  0  0  0
    4.5875    0.8000    0.0000 O   0  0  0  0  0  0  0  0  0  0  0  0
    1.5500   -0.4000    0.0000 C   0  0  0  0  0  0  0  0  0  0  0  0
    2.6042    0.6625    0.0000 C   0  0  0  0  0  0  0  0  0  0  0  0
    0.0292   -1.0000    0.0000 C   0  0  0  0  0  0  0  0  0  0  0  0
    1.2167   -0.6375    0.0000 C   0  0  0  0  0  0  0  0  0  0  0  0
    1.7667    0.4208    0.0000 C   0  0  0  0  0  0  0  0  0  0  0  0
    0.9042    0.2708    0.0000 C   0  0  0  0  0  0  0  0  0  0  0  0
   -0.2125   -0.1167    0.0000 C   0  0  0  0  0  0  0  0  0  0  0  0
    0.1667    0.5333    0.0000 C   0  0  0  0  0  0  0  0  0  0  0  0
  2  1  1  0  0  0  0
  3  9  1  0  0  0  0
  4  6  1  0  0  0  0
  5  7  2  0  0  0  0
  6 13  2  0  0  0  0
  7  2  1  0  0  0  0
  8  1  1  0  0  0  0
  9  5  1  0  0  0  0
 10  1  2  0  0  0  0
 11  1  2  0  0  0  0
 12  2  2  0  0  0  0
 13 12  1  0  0  0  0
 14  3  2  0  0  0  0
 15  7  1  0  0  0  0
 16 19  1  0  0  0  0
 17  8  1  0  0  0  0
 18  8  1  0  0  0  0
 19 15  2  0  0  0  0
 20 18  1  0  0  0  0
 21 17  1  0  0  0  0
 22 20  1  0  0  0  0
 21 22  1  0  0  0  0
  5  6  1  0  0  0  0
  4  3  1  0  0  0  0
  9 16  2  0  0  0  0
M  END
> <#>
1984

> <PLATE>
LAT025

> <ROW>
H

> <COL>
9

> <COORD>
H09

> <LATID>
LAT025H09

> <Supplier>
Chembridge

> <Suplier_CAT#>
5486291

> <Sec_Name>
141_E03

> <Concentration_(mM)>
2.5

> <IC50_(µM)>
>100

> <Yeast_Active?>
-

> <Pubchem_CID>
NULL

$$$$
