
  -ISIS-  08130814242D

 17 17  0  0  0  0  0  0  0  0999 V2000
   -1.5500    0.8833    0.0000 C   0  0  0  0  0  0  0  0  0  0  0  0
    0.0667    0.8958    0.0000 C   0  0  3  0  0  0  0  0  0  0  0  0
   -2.3625    1.3500    0.0000 C   0  0  0  0  0  0  0  0  0  0  0  0
   -0.7458    1.3500    0.0000 C   0  0  0  0  0  0  0  0  0  0  0  0
   -3.1625    0.9000    0.0000 C   0  0  0  0  0  0  0  0  0  0  0  0
   -3.1625   -0.0292    0.0000 C   0  0  0  0  0  0  0  0  0  0  0  0
   -3.9625    1.3708    0.0000 C   0  0  0  0  0  0  0  0  0  0  0  0
   -2.3625    2.2833    0.0000 O   0  0  0  0  0  0  0  0  0  0  0  0
    0.8667    0.4458    0.0000 F   0  0  0  0  0  0  0  0  0  0  0  0
    0.5292    1.7000    0.0000 F   0  0  0  0  0  0  0  0  0  0  0  0
   -0.3958    0.0833    0.0000 F   0  0  0  0  0  0  0  0  0  0  0  0
   -0.7458    2.2833    0.0000 N   0  0  0  0  0  0  0  0  0  0  0  0
   -3.9708   -0.4875    0.0000 C   0  0  0  0  0  0  0  0  0  0  0  0
   -4.7708    0.9000    0.0000 C   0  0  0  0  0  0  0  0  0  0  0  0
   -4.7708   -0.0167    0.0000 C   0  0  0  0  0  0  0  0  0  0  0  0
   -2.3625   -0.4875    0.0000 O   0  0  0  0  0  0  0  0  0  0  0  0
   -5.5625    1.3625    0.0000 C   0  0  0  0  0  0  0  0  0  0  0  0
  2  4  1  0  0  0  0
  3  1  1  0  0  0  0
  4  1  2  0  0  0  0
  5  3  1  0  0  0  0
  6  5  2  0  0  0  0
  7  5  1  0  0  0  0
  8  3  2  0  0  0  0
  9  2  1  0  0  0  0
 10  2  1  0  0  0  0
 11  2  1  0  0  0  0
 12  4  1  0  0  0  0
 13  6  1  0  0  0  0
 14  7  2  0  0  0  0
 15 14  1  0  0  0  0
 16  6  1  0  0  0  0
 17 14  1  0  0  0  0
 15 13  2  0  0  0  0
M  END
> <#>
1166

> <PLATE>
LAT015

> <ROW>
F

> <COL>
7

> <COORD>
F07

> <LATID>
LAT015F07

> <Supplier>
Chembridge

> <Suplier_CAT#>
5526290

> <Name>
Novel

> <Sec_Name>
147_G07

> <Concentration_(mM)>
2.5

> <IC50_(µM)>
>100

> <Yeast_Active?>
-

> <Pubchem_CID>
2247441

$$$$
