
  -ISIS-  08130814242D

 27 29  0  0  0  0  0  0  0  0999 V2000
   -4.4958    0.9000    0.0000 C   0  0  0  0  0  0  0  0  0  0  0  0
   -5.5958    1.5458    0.0000 C   0  0  0  0  0  0  0  0  0  0  0  0
   -4.8708    0.2708    0.0000 C   0  0  0  0  0  0  0  0  0  0  0  0
   -4.8708    1.5458    0.0000 C   0  0  3  0  0  0  0  0  0  0  0  0
   -5.9708    0.9000    0.0000 C   0  0  0  0  0  0  0  0  0  0  0  0
   -5.5958    0.2708    0.0000 N   0  0  0  0  0  0  0  0  0  0  0  0
   -3.7625    0.9000    0.0000 C   0  0  0  0  0  0  0  0  0  0  0  0
   -5.9708    2.1833    0.0000 C   0  0  0  0  0  0  0  0  0  0  0  0
   -4.2333    2.5708    0.0000 C   0  0  0  0  0  0  0  0  0  0  0  0
   -3.4000    1.5458    0.0000 O   0  0  0  0  0  0  0  0  0  0  0  0
   -5.5958    2.8458    0.0000 O   0  0  0  0  0  0  0  0  0  0  0  0
   -3.5208    2.5708    0.0000 C   0  0  0  0  0  0  0  0  0  0  0  0
   -4.6000    3.2125    0.0000 C   0  0  0  0  0  0  0  0  0  0  0  0
   -6.6875    0.9000    0.0000 C   0  0  0  0  0  0  0  0  0  0  0  0
   -3.4000    0.2708    0.0000 O   0  0  0  0  0  0  0  0  0  0  0  0
   -3.5208    3.8458    0.0000 C   0  0  0  0  0  0  0  0  0  0  0  0
   -4.4958   -0.3792    0.0000 C   0  0  0  0  0  0  0  0  0  0  0  0
   -3.1458    3.2125    0.0000 C   0  0  0  0  0  0  0  0  0  0  0  0
   -4.2333    3.8458    0.0000 C   0  0  0  0  0  0  0  0  0  0  0  0
   -3.1833    4.4792    0.0000 Br  0  0  0  0  0  0  0  0  0  0  0  0
   -1.5625   -0.3500    0.0000 S   0  0  0  0  0  0  0  0  0  0  0  0
   -6.6875    2.1833    0.0000 C   0  0  0  0  0  0  0  0  0  0  0  0
   -7.0667    1.5458    0.0000 C   0  0  0  0  0  0  0  0  0  0  0  0
   -2.2833   -0.3500    0.0000 C   0  0  0  0  0  0  0  0  0  0  0  0
   -1.1708   -0.9875    0.0000 C   0  0  0  0  0  0  0  0  0  0  0  0
   -2.6708    0.2708    0.0000 C   0  0  0  0  0  0  0  0  0  0  0  0
   -0.4333   -0.9875    0.0000 C   0  0  0  0  0  0  0  0  0  0  0  0
  2  4  1  0  0  0  0
  3  1  2  0  0  0  0
  4  1  1  0  0  0  0
  5  2  2  0  0  0  0
  6  3  1  0  0  0  0
  7  1  1  0  0  0  0
  8  2  1  0  0  0  0
  9  4  1  0  0  0  0
 10  7  2  0  0  0  0
 11  8  2  0  0  0  0
 12  9  2  0  0  0  0
 13  9  1  0  0  0  0
 14  5  1  0  0  0  0
 15  7  1  0  0  0  0
 16 19  1  0  0  0  0
 17  3  1  0  0  0  0
 18 12  1  0  0  0  0
 19 13  2  0  0  0  0
 20 16  1  0  0  0  0
 21 24  1  0  0  0  0
 22  8  1  0  0  0  0
 23 22  1  0  0  0  0
 24 26  1  0  0  0  0
 25 21  1  0  0  0  0
 26 15  1  0  0  0  0
 27 25  1  0  0  0  0
  5  6  1  0  0  0  0
 18 16  2  0  0  0  0
 14 23  1  0  0  0  0
M  END
> <#>
981

> <PLATE>
LAT013

> <ROW>
E

> <COL>
4

> <COORD>
E04

> <LATID>
LAT013E04

> <Supplier>
Chembridge

> <Suplier_CAT#>
5713170

> <Name>
Novel

> <Sec_Name>
228_C02

> <Concentration_(mM)>
2.5

> <IC50_(µM)>
84

> <Yeast_Active?>
-

> <Pubchem_CID>
NULL

$$$$
