
  -ISIS-  08130814242D

  5  5  0  0  0  0  0  0  0  0999 V2000
   -4.0933    3.1288    0.0000 N   0  0  0  0  0  0  0  0  0  0  0  0
   -3.3684    2.6085    0.0000 N   0  0  0  0  0  0  0  0  0  0  0  0
   -3.6393    1.7583    0.0000 C   0  0  0  0  0  0  0  0  0  0  0  0
   -4.5316    1.7532    0.0000 N   0  0  0  0  0  0  0  0  0  0  0  0
   -4.8122    2.6003    0.0000 C   0  0  0  0  0  0  0  0  0  0  0  0
  1  2  1  0  0  0  0
  2  3  2  0  0  0  0
  3  4  1  0  0  0  0
  4  5  2  0  0  0  0
  1  5  1  0  0  0  0
M  END
> <#>
474

> <PLATE>
LAT006

> <ROW>
B

> <COL>
11

> <COORD>
B11

> <LATID>
LAT006B11

> <Supplier>
Sigma

> <Suplier_CAT#>
T46108

> <Name>
1,2,4-Triazole

> <Concentration_(mM)>
2.5

> <IC50_(µM)>
>100

> <Yeast_Active?>
-

> <Pubchem_CID>
9257

$$$$
