
  -ISIS-  08130814242D

 21 22  0  0  0  0  0  0  0  0999 V2000
   -2.3625   -1.1000    0.0000 C   0  0  0  0  0  0  0  0  0  0  0  0
   -2.7958   -1.8375    0.0000 N   0  3  0  0  0  0  0  0  0  0  0  0
   -1.5125   -1.1000    0.0000 O   0  0  0  0  0  0  0  0  0  0  0  0
   -2.7833   -0.3792    0.0000 C   0  0  0  0  0  0  0  0  0  0  0  0
   -1.0958   -0.3792    0.0000 C   0  0  0  0  0  0  0  0  0  0  0  0
    0.2875    0.4333    0.0000 N   0  0  0  0  0  0  0  0  0  0  0  0
   -1.5000    0.3458    0.0000 C   0  0  0  0  0  0  0  0  0  0  0  0
   -3.6500   -1.8375    0.0000 O   0  5  0  0  0  0  0  0  0  0  0  0
    1.6792   -0.3500    0.0000 C   0  0  0  0  0  0  0  0  0  0  0  0
   -2.3625   -2.5667    0.0000 O   0  0  0  0  0  0  0  0  0  0  0  0
   -0.1708   -0.3667    0.0000 C   0  0  0  0  0  0  0  0  0  0  0  0
    1.2042    0.4458    0.0000 N   0  0  0  0  0  0  0  0  0  0  0  0
    1.2292   -1.1500    0.0000 O   0  0  0  0  0  0  0  0  0  0  0  0
    2.6292   -0.3500    0.0000 C   0  0  0  0  0  0  0  0  0  0  0  0
    3.0875    0.4500    0.0000 C   0  0  0  0  0  0  0  0  0  0  0  0
    4.0167    2.0708    0.0000 C   0  0  0  0  0  0  0  0  0  0  0  0
    4.4875    2.8708    0.0000 Cl  0  0  0  0  0  0  0  0  0  0  0  0
    3.0875    2.0708    0.0000 C   0  0  0  0  0  0  0  0  0  0  0  0
    4.4792    1.2708    0.0000 C   0  0  0  0  0  0  0  0  0  0  0  0
    4.0167    0.4625    0.0000 C   0  0  0  0  0  0  0  0  0  0  0  0
    2.6292    1.2625    0.0000 C   0  0  0  0  0  0  0  0  0  0  0  0
  2  1  1  0  0  0  0
  3  1  1  0  0  0  0
  4  1  2  0  0  0  0
  5  3  1  0  0  0  0
  6 11  2  0  0  0  0
  7  4  1  0  0  0  0
  8  2  1  0  0  0  0
  9 12  1  0  0  0  0
 10  2  2  0  0  0  0
 11  5  1  0  0  0  0
 12  6  1  0  0  0  0
 13  9  2  0  0  0  0
 14  9  1  0  0  0  0
 15 14  1  0  0  0  0
 16 18  1  0  0  0  0
 17 16  1  0  0  0  0
 18 21  2  0  0  0  0
 19 20  1  0  0  0  0
 20 15  2  0  0  0  0
 21 15  1  0  0  0  0
  7  5  2  0  0  0  0
 19 16  2  0  0  0  0
M  CHG  2   2   1   8  -1
M  END
> <#>
574

> <PLATE>
LAT008

> <ROW>
F

> <COL>
3

> <COORD>
F03

> <LATID>
LAT008F03

> <Supplier>
Chembridge

> <Suplier_CAT#>
5477895

> <Name>
Novel

> <Sec_Name>
139_G08

> <Concentration_(mM)>
2.5

> <IC50_(µM)>
90

> <Yeast_Active?>
-

> <Pubchem_CID>
759719

$$$$
