
  -ISIS-  08130814242D

 22 23  0  0  0  0  0  0  0  0999 V2000
   -0.3458    0.1708    0.0000 C   0  0  0  0  0  0  0  0  0  0  0  0
   -1.0000    0.5500    0.0000 C   0  0  0  0  0  0  0  0  0  0  0  0
    0.3375    0.5708    0.0000 C   0  0  0  0  0  0  0  0  0  0  0  0
   -0.9958    1.3333    0.0000 N   0  0  3  0  0  0  0  0  0  0  0  0
    1.0000    0.1958    0.0000 C   0  0  0  0  0  0  0  0  0  0  0  0
   -1.6833    0.1708    0.0000 C   0  0  0  0  0  0  0  0  0  0  0  0
    0.3500    1.3500    0.0000 O   0  0  0  0  0  0  0  0  0  0  0  0
    1.6542    0.5708    0.0000 C   0  0  0  0  0  0  0  0  0  0  0  0
    1.0000   -0.5875    0.0000 C   0  0  0  0  0  0  0  0  0  0  0  0
    1.6542   -0.9667    0.0000 C   0  0  0  0  0  0  0  0  0  0  0  0
    2.3167    0.1708    0.0000 C   0  0  0  0  0  0  0  0  0  0  0  0
    2.3167   -0.5875    0.0000 C   0  0  0  0  0  0  0  0  0  0  0  0
   -1.6458    1.7125    0.0000 C   0  0  0  0  0  0  0  0  0  0  0  0
   -0.3208    1.7125    0.0000 C   0  0  0  0  0  0  0  0  0  0  0  0
   -1.6833   -0.6042    0.0000 C   0  0  0  0  0  0  0  0  0  0  0  0
   -2.3458    0.5500    0.0000 C   0  0  0  0  0  0  0  0  0  0  0  0
    3.0000   -0.9500    0.0000 C   0  0  0  0  0  0  0  0  0  0  0  0
   -1.6458    2.4708    0.0000 C   0  0  0  0  0  0  0  0  0  0  0  0
   -0.3208    2.4708    0.0000 C   0  0  0  0  0  0  0  0  0  0  0  0
   -3.0000    0.1500    0.0000 C   0  0  0  0  0  0  0  0  0  0  0  0
   -2.3458   -0.9875    0.0000 C   0  0  0  0  0  0  0  0  0  0  0  0
   -3.0000   -0.6042    0.0000 C   0  0  0  0  0  0  0  0  0  0  0  0
  2  1  2  0  0  0  0
  3  1  1  0  0  0  0
  4  2  1  0  0  0  0
  5  3  1  0  0  0  0
  6  2  1  0  0  0  0
  7  3  2  0  0  0  0
  8  5  2  0  0  0  0
  9  5  1  0  0  0  0
 10  9  2  0  0  0  0
 11  8  1  0  0  0  0
 12 10  1  0  0  0  0
 13  4  1  0  0  0  0
 14  4  1  0  0  0  0
 15  6  2  0  0  0  0
 16  6  1  0  0  0  0
 17 12  1  0  0  0  0
 18 13  1  0  0  0  0
 19 14  1  0  0  0  0
 20 16  2  0  0  0  0
 21 15  1  0  0  0  0
 22 20  1  0  0  0  0
 11 12  2  0  0  0  0
 22 21  2  0  0  0  0
M  END
> <#>
1703

> <PLATE>
LAT022

> <ROW>
G

> <COL>
4

> <COORD>
G04

> <LATID>
LAT022G04

> <Supplier>
Chembridge

> <Suplier_CAT#>
5213815

> <Name>
Novel

> <Concentration_(mM)>
2.5

> <IC50_(µM)>
>100

> <Yeast_Active?>
-

> <Pubchem_CID>
2833914

$$$$
