
  -ISIS-  08130814242D

 22 24  0  0  0  0  0  0  0  0999 V2000
   -2.0208    0.9333    0.0000 C   0  0  0  0  0  0  0  0  0  0  0  0
   -2.0208    0.2708    0.0000 C   0  0  0  0  0  0  0  0  0  0  0  0
   -2.6000    1.2625    0.0000 C   0  0  0  0  0  0  0  0  0  0  0  0
   -2.6000   -0.0542    0.0000 C   0  0  0  0  0  0  0  0  0  0  0  0
   -0.8625    0.9333    0.0000 C   0  0  0  0  0  0  0  0  0  0  0  0
   -1.4458    1.2625    0.0000 C   0  0  0  0  0  0  0  0  0  0  0  0
   -1.4458   -0.0542    0.0000 C   0  0  0  0  0  0  0  0  0  0  0  0
   -0.8625    0.2708    0.0000 C   0  0  0  0  0  0  0  0  0  0  0  0
   -3.1833    0.9333    0.0000 C   0  0  0  0  0  0  0  0  0  0  0  0
   -3.1833    0.2708    0.0000 C   0  0  0  0  0  0  0  0  0  0  0  0
   -1.4458    1.8958    0.0000 N   0  0  3  0  0  0  0  0  0  0  0  0
   -2.5833    1.8958    0.0000 O   0  0  0  0  0  0  0  0  0  0  0  0
   -2.5625   -0.5292    0.0000 O   0  0  0  0  0  0  0  0  0  0  0  0
   -0.3500    1.2333    0.0000 Cl  0  0  0  0  0  0  0  0  0  0  0  0
   -1.4625   -0.5500    0.0000 Cl  0  0  0  0  0  0  0  0  0  0  0  0
   -0.2833    0.0458    0.0000 Cl  0  0  0  0  0  0  0  0  0  0  0  0
   -3.7625   -0.0542    0.0000 C   0  0  0  0  0  0  0  0  0  0  0  0
   -3.7625    1.2625    0.0000 C   0  0  0  0  0  0  0  0  0  0  0  0
   -0.9000    2.2125    0.0000 C   0  0  0  0  0  0  0  0  0  0  0  0
   -1.8708    2.3000    0.0000 C   0  0  0  0  0  0  0  0  0  0  0  0
   -4.3458    0.9333    0.0000 C   0  0  0  0  0  0  0  0  0  0  0  0
   -4.3458    0.2708    0.0000 C   0  0  0  0  0  0  0  0  0  0  0  0
  2  1  2  0  0  0  0
  3  1  1  0  0  0  0
  4  2  1  0  0  0  0
  5  6  2  0  0  0  0
  6  1  1  0  0  0  0
  7  2  1  0  0  0  0
  8  5  1  0  0  0  0
  9  3  1  0  0  0  0
 10  9  2  0  0  0  0
 11  6  1  0  0  0  0
 12  3  2  0  0  0  0
 13  4  2  0  0  0  0
 14  5  1  0  0  0  0
 15  7  1  0  0  0  0
 16  8  1  0  0  0  0
 17 10  1  0  0  0  0
 18  9  1  0  0  0  0
 19 11  1  0  0  0  0
 20 11  1  0  0  0  0
 21 18  2  0  0  0  0
 22 21  1  0  0  0  0
  7  8  2  0  0  0  0
  4 10  1  0  0  0  0
 22 17  2  0  0  0  0
M  END
> <#>
2007

> <PLATE>
LAT026

> <ROW>
G

> <COL>
2

> <COORD>
G02

> <LATID>
LAT026G02

> <Supplier>
Chembridge

> <Suplier_CAT#>
5629241

> <Sec_Name>
191_E04

> <Concentration_(mM)>
2.5

> <IC50_(µM)>
inactive

> <Yeast_Active?>
-

> <Pubchem_CID>
NULL

$$$$
