
  -ISIS-  08130814242D

 23 26  0  0  0  0  0  0  0  0999 V2000
    2.3792    0.7208    0.0000 N   0  0  0  0  0  0  0  0  0  0  0  0
    2.8167    1.3250    0.0000 C   0  0  0  0  0  0  0  0  0  0  0  0
    1.6667    0.9500    0.0000 C   0  0  0  0  0  0  0  0  0  0  0  0
    2.3792    1.9333    0.0000 O   0  0  0  0  0  0  0  0  0  0  0  0
    1.6667    1.7000    0.0000 C   0  0  0  0  0  0  0  0  0  0  0  0
    3.5667    1.3250    0.0000 C   0  0  0  0  0  0  0  0  0  0  0  0
    1.0167    0.5750    0.0000 N   0  0  0  0  0  0  0  0  0  0  0  0
    7.3167    1.3250    0.0000 N   0  0  0  0  0  0  0  0  0  0  0  0
    5.8167    1.3250    0.0000 N   0  0  0  0  0  0  0  0  0  0  0  0
    3.9417    0.6750    0.0000 C   0  0  0  0  0  0  0  0  0  0  0  0
    3.9417    1.9750    0.0000 C   0  0  0  0  0  0  0  0  0  0  0  0
    5.0667    1.3250    0.0000 C   0  0  0  0  0  0  0  0  0  0  0  0
    6.9417    1.9750    0.0000 C   0  0  0  0  0  0  0  0  0  0  0  0
    6.1917    1.9750    0.0000 C   0  0  0  0  0  0  0  0  0  0  0  0
    4.6917    0.6750    0.0000 C   0  0  0  0  0  0  0  0  0  0  0  0
    4.6917    1.9750    0.0000 C   0  0  0  0  0  0  0  0  0  0  0  0
    1.0167    2.0833    0.0000 C   0  0  0  0  0  0  0  0  0  0  0  0
    0.3667    0.9500    0.0000 C   0  0  0  0  0  0  0  0  0  0  0  0
    8.0667    1.3250    0.0000 C   0  0  0  0  0  0  0  0  0  0  0  0
    7.3167    2.6250    0.0000 C   0  0  0  0  0  0  0  0  0  0  0  0
    0.3667    1.7000    0.0000 C   0  0  0  0  0  0  0  0  0  0  0  0
    8.4417    1.9750    0.0000 C   0  0  0  0  0  0  0  0  0  0  0  0
    8.0667    2.6250    0.0000 C   0  0  0  0  0  0  0  0  0  0  0  0
  2  1  2  0  0  0  0
  3  1  1  0  0  0  0
  4  2  1  0  0  0  0
  5  3  2  0  0  0  0
  6  2  1  0  0  0  0
  7  3  1  0  0  0  0
  8 13  2  0  0  0  0
  9 12  1  0  0  0  0
 10  6  2  0  0  0  0
 11  6  1  0  0  0  0
 12 16  1  0  0  0  0
 13 14  1  0  0  0  0
 14  9  1  0  0  0  0
 15 10  1  0  0  0  0
 16 11  2  0  0  0  0
 17  5  1  0  0  0  0
 18  7  2  0  0  0  0
 19  8  1  0  0  0  0
 20 13  1  0  0  0  0
 21 18  1  0  0  0  0
 22 23  1  0  0  0  0
 23 20  2  0  0  0  0
  4  5  1  0  0  0  0
 21 17  2  0  0  0  0
 12 15  2  0  0  0  0
 22 19  2  0  0  0  0
M  END
> <#>
1426

> <PLATE>
LAT018

> <ROW>
B

> <COL>
10

> <COORD>
B10

> <LATID>
LAT018B10

> <Supplier>
Chembridge

> <Suplier_CAT#>
9067742

> <Name>
Novel

> <Concentration_(mM)>
2.5

> <IC50_(µM)>
>100

> <Yeast_Active?>
-

> <Pubchem_CID>
6473143

$$$$
