
  -ISIS-  08130814242D

 30 32  0  0  0  0  0  0  0  0999 V2000
    3.2250   -1.7667    0.0000 S   0  0  3  0  0  0  0  0  0  0  0  0
    3.2250   -0.9417    0.0000 N   0  0  3  0  0  0  0  0  0  0  0  0
    3.9375   -0.5250    0.0000 C   0  0  3  0  0  0  0  0  0  0  0  0
    4.6542   -0.9375    0.0000 C   0  0  0  0  0  0  0  0  0  0  0  0
    5.3667   -0.5250    0.0000 N   0  0  0  0  0  0  0  0  0  0  0  0
    3.6292   -2.4792    0.0000 O   0  0  0  0  0  0  0  0  0  0  0  0
    4.0500   -1.7667    0.0000 O   0  0  0  0  0  0  0  0  0  0  0  0
    2.5042   -0.5292    0.0000 C   0  0  0  0  0  0  0  0  0  0  0  0
    7.5042   -0.9292    0.0000 N   0  0  0  0  0  0  0  0  0  0  0  0
    4.6542   -1.7625    0.0000 O   0  0  0  0  0  0  0  0  0  0  0  0
    0.3667    0.7083    0.0000 O   0  0  0  0  0  0  0  0  0  0  0  0
    1.7917   -0.9417    0.0000 C   0  0  0  0  0  0  0  0  0  0  0  0
    2.5042    0.3000    0.0000 C   0  0  0  0  0  0  0  0  0  0  0  0
    2.5042   -2.1750    0.0000 C   0  0  0  0  0  0  0  0  0  0  0  0
    6.0792   -0.9375    0.0000 C   0  0  0  0  0  0  0  0  0  0  0  0
    6.7917   -0.5250    0.0000 C   0  0  0  0  0  0  0  0  0  0  0  0
    1.0792    0.2958    0.0000 C   0  0  0  0  0  0  0  0  0  0  0  0
    1.7917    0.7125    0.0000 C   0  0  0  0  0  0  0  0  0  0  0  0
    1.0792   -0.5292    0.0000 C   0  0  0  0  0  0  0  0  0  0  0  0
   -0.3458    0.2958    0.0000 C   0  0  0  0  0  0  0  0  0  0  0  0
    3.9375    0.3000    0.0000 C   0  0  0  0  0  0  0  0  0  0  0  0
    8.2250   -0.5250    0.0000 C   0  0  0  0  0  0  0  0  0  0  0  0
    6.8000    0.3000    0.0000 C   0  0  0  0  0  0  0  0  0  0  0  0
   -1.0500    0.7083    0.0000 C   0  0  0  0  0  0  0  0  0  0  0  0
   -0.3458   -0.5250    0.0000 C   0  0  0  0  0  0  0  0  0  0  0  0
    8.2250    0.3000    0.0000 C   0  0  0  0  0  0  0  0  0  0  0  0
   -1.7625    0.2958    0.0000 C   0  0  0  0  0  0  0  0  0  0  0  0
   -1.0500   -0.9375    0.0000 C   0  0  0  0  0  0  0  0  0  0  0  0
    7.5042    0.7208    0.0000 C   0  0  0  0  0  0  0  0  0  0  0  0
   -1.7583   -0.5292    0.0000 C   0  0  0  0  0  0  0  0  0  0  0  0
  2  1  1  0  0  0  0
  3  2  1  0  0  0  0
  4  3  1  0  0  0  0
  5  4  1  0  0  0  0
  6  1  2  0  0  0  0
  7  1  2  0  0  0  0
  8  2  1  0  0  0  0
  9 16  1  0  0  0  0
 10  4  2  0  0  0  0
 11 17  1  0  0  0  0
 12  8  2  0  0  0  0
 13  8  1  0  0  0  0
 14  1  1  0  0  0  0
 15  5  1  0  0  0  0
 16 15  1  0  0  0  0
 17 18  1  0  0  0  0
 18 13  2  0  0  0  0
 19 12  1  0  0  0  0
 20 11  1  0  0  0  0
 21  3  1  0  0  0  0
 22  9  2  0  0  0  0
 23 16  2  0  0  0  0
 24 20  1  0  0  0  0
 25 20  2  0  0  0  0
 26 29  2  0  0  0  0
 27 24  2  0  0  0  0
 28 25  1  0  0  0  0
 29 23  1  0  0  0  0
 30 28  2  0  0  0  0
 17 19  2  0  0  0  0
 22 26  1  0  0  0  0
 30 27  1  0  0  0  0
M  END
> <#>
1559

> <PLATE>
LAT020

> <ROW>
G

> <COL>
6

> <COORD>
G06

> <LATID>
LAT020G06

> <Supplier>
Chembridge

> <Suplier_CAT#>
7185789

> <Name>
Novel

> <Concentration_(mM)>
2.5

> <IC50_(µM)>
70

> <Yeast_Active?>
-

> <Pubchem_CID>
1310888

$$$$
