
  -ISIS-  08130814242D

 27 28  0  0  0  0  0  0  0  0999 V2000
   -2.8625    0.7208    0.0000 C   0  0  0  0  0  0  0  0  0  0  0  0
   -3.8000    1.2333    0.0000 C   0  0  0  0  0  0  0  0  0  0  0  0
   -0.0833    1.2333    0.0000 C   0  0  0  0  0  0  0  0  0  0  0  0
    1.6542    1.1208    0.0000 N   0  0  0  0  0  0  0  0  0  0  0  0
   -4.7208    0.6333    0.0000 C   0  0  0  0  0  0  0  0  0  0  0  0
    3.4167    1.0958    0.0000 C   0  0  0  0  0  0  0  0  0  0  0  0
   -1.9333    1.2500    0.0000 O   0  0  0  0  0  0  0  0  0  0  0  0
    0.7792    0.6458    0.0000 N   0  0  0  0  0  0  0  0  0  0  0  0
   -2.8625   -0.3792    0.0000 C   0  0  0  0  0  0  0  0  0  0  0  0
   -0.0833    2.2833    0.0000 O   0  0  0  0  0  0  0  0  0  0  0  0
    4.3042    0.5000    0.0000 C   0  0  0  0  0  0  0  0  0  0  0  0
    2.4667    0.6208    0.0000 C   0  0  0  0  0  0  0  0  0  0  0  0
   -1.0500    0.7625    0.0000 C   0  0  0  0  0  0  0  0  0  0  0  0
   -3.8000    2.2458    0.0000 C   0  0  3  0  0  0  0  0  0  0  0  0
   -4.7208   -0.3875    0.0000 C   0  0  0  0  0  0  0  0  0  0  0  0
   -3.7958   -0.9375    0.0000 C   0  0  0  0  0  0  0  0  0  0  0  0
    4.3000   -0.5292    0.0000 O   0  0  0  0  0  0  0  0  0  0  0  0
    3.4167    2.0958    0.0000 C   0  0  0  0  0  0  0  0  0  0  0  0
    5.2375    0.9958    0.0000 C   0  0  0  0  0  0  0  0  0  0  0  0
   -4.7208    2.7708    0.0000 C   0  0  0  0  0  0  0  0  0  0  0  0
   -2.9208    2.8000    0.0000 C   0  0  0  0  0  0  0  0  0  0  0  0
   -3.7958   -1.9667    0.0000 C   0  0  0  0  0  0  0  0  0  0  0  0
    3.3542   -1.0292    0.0000 C   0  0  0  0  0  0  0  0  0  0  0  0
    3.3542   -2.0500    0.0000 C   0  0  0  0  0  0  0  0  0  0  0  0
    4.4042    2.6000    0.0000 C   0  0  0  0  0  0  0  0  0  0  0  0
    4.2042   -2.5542    0.0000 C   0  0  0  0  0  0  0  0  0  0  0  0
    5.2375    2.1125    0.0000 C   0  0  0  0  0  0  0  0  0  0  0  0
  2  1  1  0  0  0  0
  3 13  1  0  0  0  0
  4  8  1  0  0  0  0
  5  2  2  0  0  0  0
  6 12  1  0  0  0  0
  7  1  1  0  0  0  0
  8  3  1  0  0  0  0
  9  1  2  0  0  0  0
 10  3  2  0  0  0  0
 11  6  2  0  0  0  0
 12  4  2  0  0  0  0
 13  7  1  0  0  0  0
 14  2  1  0  0  0  0
 15 16  2  0  0  0  0
 16  9  1  0  0  0  0
 17 11  1  0  0  0  0
 18  6  1  0  0  0  0
 19 11  1  0  0  0  0
 20 14  1  0  0  0  0
 21 14  1  0  0  0  0
 22 16  1  0  0  0  0
 23 17  1  0  0  0  0
 24 23  1  0  0  0  0
 25 18  2  0  0  0  0
 26 24  1  0  0  0  0
 27 25  1  0  0  0  0
 15  5  1  0  0  0  0
 27 19  2  0  0  0  0
M  END
> <#>
1882

> <PLATE>
LAT024

> <ROW>
B

> <COL>
7

> <COORD>
B07

> <LATID>
LAT024B07

> <Supplier>
Chembridge

> <Suplier_CAT#>
5204891

> <Name>
S001 A04

> <Concentration_(mM)>
2.5

> <IC50_(µM)>
>100

> <Yeast_Active?>
-

> <Pubchem_CID>
2268762

$$$$
