
  -ISIS-  08130814242D

  4  3  0  0  0  0  0  0  0  0999 V2000
    5.7875   -4.2461    0.0000 N   0  0  0  0  0  0  0  0  0  0  0  0
    6.4125   -3.1635    0.0000 C   0  0  0  0  0  0  0  0  0  0  0  0
    5.7875   -2.0810    0.0000 S   0  0  0  0  0  0  0  0  0  0  0  0
    7.6625   -3.1635    0.0000 N   0  0  0  0  0  0  0  0  0  0  0  0
  1  2  1  0  0  0  0
  2  3  2  0  0  0  0
  2  4  1  0  0  0  0
M  END
> <#>
337

> <PLATE>
LAT005

> <ROW>
A

> <COL>
4

> <COORD>
A04

> <LATID>
LAT005A04

> <Supplier>
Sigma

> <Suplier_CAT#>
T-8656

> <Name>
Thiourea

> <Concentration_(mM)>
2.5

> <IC50_(µM)>
inactive

> <Yeast_Active?>
-

> <Pubchem_CID>
2723790

$$$$
