
  -ISIS-  08130814242D

 20 21  0  0  0  0  0  0  0  0999 V2000
   -2.2958    0.4625    0.0000 C   0  0  0  0  0  0  0  0  0  0  0  0
   -1.4833    0.9333    0.0000 C   0  0  0  0  0  0  0  0  0  0  0  0
   -0.6708    0.4708    0.0000 C   0  0  0  0  0  0  0  0  0  0  0  0
   -3.1000    0.9333    0.0000 C   0  0  0  0  0  0  0  0  0  0  0  0
    0.1292    0.9458    0.0000 C   0  0  0  0  0  0  0  0  0  0  0  0
    0.9375    0.4833    0.0000 C   0  0  0  0  0  0  0  0  0  0  0  0
   -2.2958   -0.4792    0.0000 C   0  0  0  0  0  0  0  0  0  0  0  0
   -3.9125    0.4625    0.0000 C   0  0  0  0  0  0  0  0  0  0  0  0
   -1.4958    1.8625    0.0000 O   0  0  0  0  0  0  0  0  0  0  0  0
    1.7042    0.9625    0.0000 C   0  0  0  0  0  0  0  0  0  0  0  0
    0.1167    1.8708    0.0000 O   0  0  0  0  0  0  0  0  0  0  0  0
   -3.1000    1.8625    0.0000 O   0  0  0  0  0  0  0  0  0  0  0  0
    2.5500    0.5333    0.0000 C   0  0  0  0  0  0  0  0  0  0  0  0
   -3.1000   -0.9500    0.0000 C   0  0  0  0  0  0  0  0  0  0  0  0
   -3.9125   -0.4792    0.0000 C   0  0  0  0  0  0  0  0  0  0  0  0
    3.3375    0.9958    0.0000 F   0  0  0  0  0  0  0  0  0  0  0  0
    0.9667   -0.4542    0.0000 C   0  0  0  0  0  0  0  0  0  0  0  0
    1.7875   -0.8792    0.0000 C   0  0  0  0  0  0  0  0  0  0  0  0
    2.5792   -0.3792    0.0000 C   0  0  0  0  0  0  0  0  0  0  0  0
   -4.7208   -0.9375    0.0000 C   0  0  0  0  0  0  0  0  0  0  0  0
  2  1  1  0  0  0  0
  3  2  1  0  0  0  0
  4  1  1  0  0  0  0
  5  3  1  0  0  0  0
  6  5  1  0  0  0  0
  7  1  2  0  0  0  0
  8  4  2  0  0  0  0
  9  2  2  0  0  0  0
 10  6  1  0  0  0  0
 11  5  2  0  0  0  0
 12  4  1  0  0  0  0
 13 10  2  0  0  0  0
 14  7  1  0  0  0  0
 15 14  2  0  0  0  0
 16 13  1  0  0  0  0
 17  6  2  0  0  0  0
 18 17  1  0  0  0  0
 19 18  2  0  0  0  0
 20 15  1  0  0  0  0
 15  8  1  0  0  0  0
 19 13  1  0  0  0  0
M  END
> <#>
1202

> <PLATE>
LAT016

> <ROW>
B

> <COL>
2

> <COORD>
B02

> <LATID>
LAT016B02

> <Supplier>
Chembridge

> <Suplier_CAT#>
5812380

> <Name>
Novel

> <Concentration_(mM)>
2.5

> <IC50_(µM)>
inactive

> <Yeast_Active?>
-

> <Pubchem_CID>
776171

$$$$
