
  -ISIS-  08130814242D

 23 25  0  0  0  0  0  0  0  0999 V2000
   -0.5708   -0.0167    0.0000 C   0  0  0  0  0  0  0  0  0  0  0  0
   -1.2708    0.3833    0.0000 C   0  0  0  0  0  0  0  0  0  0  0  0
   -1.9708   -0.0167    0.0000 C   0  0  0  0  0  0  0  0  0  0  0  0
    0.1500    0.3833    0.0000 C   0  0  0  0  0  0  0  0  0  0  0  0
    0.8292   -0.0167    0.0000 C   0  0  0  0  0  0  0  0  0  0  0  0
   -0.5708   -0.8375    0.0000 C   0  0  0  0  0  0  0  0  0  0  0  0
    3.6042   -0.0167    0.0000 C   0  0  0  0  0  0  0  0  0  0  0  0
    1.5292    0.3833    0.0000 C   0  0  0  0  0  0  0  0  0  0  0  0
    3.6042   -0.8167    0.0000 C   0  0  0  0  0  0  0  0  0  0  0  0
    2.9042    0.3833    0.0000 C   0  0  0  0  0  0  0  0  0  0  0  0
   -1.9708   -0.8375    0.0000 C   0  0  0  0  0  0  0  0  0  0  0  0
   -1.2708   -1.2375    0.0000 C   0  0  0  0  0  0  0  0  0  0  0  0
    0.1500    1.1833    0.0000 O   0  0  0  0  0  0  0  0  0  0  0  0
    2.2292   -0.0167    0.0000 C   0  0  0  0  0  0  0  0  0  0  0  0
    2.9042   -1.2167    0.0000 C   0  0  0  0  0  0  0  0  0  0  0  0
   -1.2708    1.1833    0.0000 O   0  0  0  0  0  0  0  0  0  0  0  0
    4.3667    0.2208    0.0000 Cl  0  0  0  0  0  0  0  0  0  0  0  0
    4.3667   -1.0542    0.0000 Cl  0  0  0  0  0  0  0  0  0  0  0  0
    2.2292   -0.8167    0.0000 C   0  0  0  0  0  0  0  0  0  0  0  0
   -2.6500    0.3833    0.0000 C   0  0  0  0  0  0  0  0  0  0  0  0
   -2.6500   -1.2375    0.0000 C   0  0  0  0  0  0  0  0  0  0  0  0
   -3.3500   -0.0167    0.0000 C   0  0  0  0  0  0  0  0  0  0  0  0
   -3.3500   -0.8375    0.0000 C   0  0  0  0  0  0  0  0  0  0  0  0
  2  1  1  0  0  0  0
  3  2  2  0  0  0  0
  4  1  1  0  0  0  0
  5  4  1  0  0  0  0
  6  1  2  0  0  0  0
  7 10  2  0  0  0  0
  8  5  2  0  0  0  0
  9 15  2  0  0  0  0
 10 14  1  0  0  0  0
 11 12  2  0  0  0  0
 12  6  1  0  0  0  0
 13  4  2  0  0  0  0
 14  8  1  0  0  0  0
 15 19  1  0  0  0  0
 16  2  1  0  0  0  0
 17  7  1  0  0  0  0
 18  9  1  0  0  0  0
 19 14  2  0  0  0  0
 20  3  1  0  0  0  0
 21 11  1  0  0  0  0
 22 20  2  0  0  0  0
 23 21  2  0  0  0  0
  3 11  1  0  0  0  0
 22 23  1  0  0  0  0
  7  9  1  0  0  0  0
M  END
> <#>
1231

> <PLATE>
LAT016

> <ROW>
G

> <COL>
5

> <COORD>
G05

> <LATID>
LAT016G05

> <Supplier>
Chembridge

> <Suplier_CAT#>
6152145

> <Name>
Novel

> <Concentration_(mM)>
2.5

> <IC50_(µM)>
inactive

> <Yeast_Active?>
-

> <Pubchem_CID>
2888364

$$$$
