
  -ISIS-  08130814242D

 18 19  0  0  0  0  0  0  0  0999 V2000
   -2.4458    2.6000    0.0000 C   0  0  0  0  0  0  0  0  0  0  0  0
   -3.2458    3.0625    0.0000 N   0  0  0  0  0  0  0  0  0  0  0  0
   -2.4458    1.6833    0.0000 N   0  0  0  0  0  0  0  0  0  0  0  0
   -0.8458    2.6208    0.0000 N   0  0  0  0  0  0  0  0  0  0  0  0
    0.7542    2.6208    0.0000 C   0  0  0  0  0  0  0  0  0  0  0  0
   -1.6458    3.0833    0.0000 N   0  0  0  0  0  0  0  0  0  0  0  0
   -3.2458    1.2208    0.0000 C   0  0  0  0  0  0  0  0  0  0  0  0
   -4.0458    2.6000    0.0000 C   0  0  0  0  0  0  0  0  0  0  0  0
   -4.0458    1.6833    0.0000 C   0  0  0  0  0  0  0  0  0  0  0  0
    0.7375    1.7000    0.0000 C   0  0  0  0  0  0  0  0  0  0  0  0
   -0.0458    3.0833    0.0000 C   0  0  0  0  0  0  0  0  0  0  0  0
   -0.0500    1.2625    0.0000 O   0  0  0  0  0  0  0  0  0  0  0  0
    1.5542    3.0833    0.0000 C   0  0  0  0  0  0  0  0  0  0  0  0
   -3.2458    0.3000    0.0000 C   0  0  0  0  0  0  0  0  0  0  0  0
   -4.8458    3.0625    0.0000 C   0  0  0  0  0  0  0  0  0  0  0  0
    1.5375    1.2458    0.0000 C   0  0  0  0  0  0  0  0  0  0  0  0
    2.3375    2.6208    0.0000 C   0  0  0  0  0  0  0  0  0  0  0  0
    2.3375    1.7000    0.0000 C   0  0  0  0  0  0  0  0  0  0  0  0
  2  1  2  0  0  0  0
  3  1  1  0  0  0  0
  4  6  1  0  0  0  0
  5 11  1  0  0  0  0
  6  1  1  0  0  0  0
  7  3  2  0  0  0  0
  8  2  1  0  0  0  0
  9  7  1  0  0  0  0
 10  5  2  0  0  0  0
 11  4  2  0  0  0  0
 12 10  1  0  0  0  0
 13  5  1  0  0  0  0
 14  7  1  0  0  0  0
 15  8  1  0  0  0  0
 16 10  1  0  0  0  0
 17 13  2  0  0  0  0
 18 17  1  0  0  0  0
  8  9  2  0  0  0  0
 18 16  2  0  0  0  0
M  END
> <#>
1763

> <PLATE>
LAT023

> <ROW>
C

> <COL>
2

> <COORD>
C02

> <LATID>
LAT023C02

> <Supplier>
Chembridge

> <Suplier_CAT#>
5488297

> <Name>
Novel

> <Sec_Name>
147_E05

> <Concentration_(mM)>
2.5

> <IC50_(µM)>
18

> <Yeast_Active?>
-

> <Pubchem_CID>
NULL

$$$$
