
  -ISIS-  08130814242D

 22 23  0  0  0  0  0  0  0  0999 V2000
    6.2125    1.8750    0.0000 C   0  0  0  0  0  0  0  0  0  0  0  0
    5.5625    1.5000    0.0000 N   0  0  0  0  0  0  0  0  0  0  0  0
    4.9125    1.8750    0.0000 C   0  0  0  0  0  0  0  0  0  0  0  0
    4.2625    1.5000    0.0000 C   0  0  0  0  0  0  0  0  0  0  0  0
    6.8542    1.5000    0.0000 C   0  0  0  0  0  0  0  0  0  0  0  0
    6.2125    2.6250    0.0000 C   0  0  0  0  0  0  0  0  0  0  0  0
    6.8542    3.0000    0.0000 C   0  0  0  0  0  0  0  0  0  0  0  0
    7.5042    1.8750    0.0000 C   0  0  0  0  0  0  0  0  0  0  0  0
    3.6125    1.8750    0.0000 N   0  0  0  0  0  0  0  0  0  0  0  0
    7.5042    2.6250    0.0000 C   0  0  0  0  0  0  0  0  0  0  0  0
    4.9125    2.6250    0.0000 O   0  0  0  0  0  0  0  0  0  0  0  0
    2.3125    2.6250    0.0000 N   0  0  0  0  0  0  0  0  0  0  0  0
    4.2625    0.7500    0.0000 O   0  0  0  0  0  0  0  0  0  0  0  0
    6.8542    0.7500    0.0000 Br  0  0  0  0  0  0  0  0  0  0  0  0
    5.5625    3.0000    0.0000 F   0  0  0  0  0  0  0  0  0  0  0  0
    2.9625    1.5000    0.0000 C   0  0  0  0  0  0  0  0  0  0  0  0
    2.3125    1.8750    0.0000 C   0  0  0  0  0  0  0  0  0  0  0  0
    8.1542    3.0000    0.0000 F   0  0  0  0  0  0  0  0  0  0  0  0
    1.6625    3.0000    0.0000 C   0  0  0  0  0  0  0  0  0  0  0  0
    1.6625    1.5000    0.0000 C   0  0  0  0  0  0  0  0  0  0  0  0
    1.0125    2.6250    0.0000 C   0  0  0  0  0  0  0  0  0  0  0  0
    1.0125    1.8750    0.0000 C   0  0  0  0  0  0  0  0  0  0  0  0
  2  1  1  0  0  0  0
  3  2  1  0  0  0  0
  4  3  1  0  0  0  0
  5  1  2  0  0  0  0
  6  1  1  0  0  0  0
  7  6  2  0  0  0  0
  8  5  1  0  0  0  0
  9  4  1  0  0  0  0
 10  7  1  0  0  0  0
 11  3  2  0  0  0  0
 12 17  1  0  0  0  0
 13  4  2  0  0  0  0
 14  5  1  0  0  0  0
 15  6  1  0  0  0  0
 16  9  1  0  0  0  0
 17 16  1  0  0  0  0
 18 10  1  0  0  0  0
 19 12  2  0  0  0  0
 20 17  2  0  0  0  0
 21 22  2  0  0  0  0
 22 20  1  0  0  0  0
 10  8  2  0  0  0  0
 21 19  1  0  0  0  0
M  END
> <#>
1445

> <PLATE>
LAT019

> <ROW>
E

> <COL>
2

> <COORD>
E02

> <LATID>
LAT019E02

> <Supplier>
Chembridge

> <Suplier_CAT#>
9001692

> <Name>
Novel

> <Concentration_(mM)>
2.5

> <IC50_(µM)>
inactive

> <Yeast_Active?>
-

> <Pubchem_CID>
2989550

$$$$
