
  -ISIS-  08130814242D

 20 20  0  0  0  0  0  0  0  0999 V2000
   -0.0833    1.7708    0.0000 C   0  0  0  0  0  0  0  0  0  0  0  0
   -2.8000    1.7500    0.0000 C   0  0  0  0  0  0  0  0  0  0  0  0
   -2.1208    2.1500    0.0000 C   0  0  0  0  0  0  0  0  0  0  0  0
   -0.7625    2.1500    0.0000 S   0  0  0  0  0  0  0  0  0  0  0  0
   -1.4458    1.7708    0.0000 C   0  0  3  0  0  0  0  0  0  0  0  0
    0.6000    2.1500    0.0000 S   0  0  0  0  0  0  0  0  0  0  0  0
   -0.0833    0.9708    0.0000 N   0  0  3  0  0  0  0  0  0  0  0  0
   -2.8000    0.9708    0.0000 C   0  0  0  0  0  0  0  0  0  0  0  0
   -3.4833    2.1500    0.0000 C   0  0  0  0  0  0  0  0  0  0  0  0
   -2.1208    2.9333    0.0000 O   0  0  0  0  0  0  0  0  0  0  0  0
   -3.4833    0.5708    0.0000 C   0  0  0  0  0  0  0  0  0  0  0  0
   -4.1625    1.7500    0.0000 C   0  0  0  0  0  0  0  0  0  0  0  0
   -4.1625    0.9708    0.0000 C   0  0  0  0  0  0  0  0  0  0  0  0
   -2.1208    0.5708    0.0000 O   0  0  0  0  0  0  0  0  0  0  0  0
   -4.8458    2.1500    0.0000 Br  0  0  0  0  0  0  0  0  0  0  0  0
   -1.4458    0.9708    0.0000 C   0  0  0  0  0  0  0  0  0  0  0  0
   -0.7625    0.5958    0.0000 C   0  0  0  0  0  0  0  0  0  0  0  0
    0.6000    0.5958    0.0000 C   0  0  0  0  0  0  0  0  0  0  0  0
   -0.7625   -0.2042    0.0000 C   0  0  0  0  0  0  0  0  0  0  0  0
    1.2792    0.9708    0.0000 C   0  0  0  0  0  0  0  0  0  0  0  0
  2  3  1  0  0  0  0
  3  5  1  0  0  0  0
  4  1  1  0  0  0  0
  5  4  1  0  0  0  0
  6  1  2  0  0  0  0
  7  1  1  0  0  0  0
  8  2  2  0  0  0  0
  9  2  1  0  0  0  0
 10  3  2  0  0  0  0
 11  8  1  0  0  0  0
 12  9  2  0  0  0  0
 13 12  1  0  0  0  0
 14  8  1  0  0  0  0
 15 12  1  0  0  0  0
 16  5  1  0  0  0  0
 17  7  1  0  0  0  0
 18  7  1  0  0  0  0
 19 17  1  0  0  0  0
 20 18  1  0  0  0  0
 13 11  2  0  0  0  0
M  END
> <#>
1747

> <PLATE>
LAT022

> <ROW>
C

> <COL>
10

> <COORD>
C10

> <LATID>
LAT022C10

> <Supplier>
Chembridge

> <Suplier_CAT#>
5568575

> <Name>
Hypostatin

> <Sec_Name>
174_C05

> <Concentration_(mM)>
2.5

> <IC50_(µM)>
>100

> <Yeast_Active?>
-

> <Pubchem_CID>
1610079

$$$$
