
  -ISIS-  08130814242D

 30 33  0  0  0  0  0  0  0  0999 V2000
   -2.3500    2.1750    0.0000 C   0  0  0  0  0  0  0  0  0  0  0  0
   -2.5875    1.8375    0.0000 C   0  0  0  0  0  0  0  0  0  0  0  0
   -1.9583    2.0500    0.0000 C   0  0  0  0  0  0  0  0  0  0  0  0
   -2.4875    2.5833    0.0000 C   0  0  0  0  0  0  0  0  0  0  0  0
   -1.9583    1.6333    0.0000 C   0  0  0  0  0  0  0  0  0  0  0  0
   -2.3500    1.5083    0.0000 S   0  0  0  0  0  0  0  0  0  0  0  0
   -2.2083    2.8958    0.0000 N   0  0  0  0  0  0  0  0  0  0  0  0
   -2.3375    3.2833    0.0000 C   0  0  0  0  0  0  0  0  0  0  0  0
   -3.0083    1.8333    0.0000 N   0  0  0  0  0  0  0  0  0  0  0  0
   -1.5958    2.2583    0.0000 C   0  0  0  0  0  0  0  0  0  0  0  0
   -2.0583    3.5958    0.0000 C   0  0  0  0  0  0  0  0  0  0  0  0
   -1.5958    1.4250    0.0000 C   0  0  0  0  0  0  0  0  0  0  0  0
   -2.8958    2.6583    0.0000 O   0  0  0  0  0  0  0  0  0  0  0  0
   -2.7458    3.3708    0.0000 C   0  0  0  0  0  0  0  0  0  0  0  0
   -3.8375    1.8458    0.0000 N   0  0  0  0  0  0  0  0  0  0  0  0
   -2.8708    3.7708    0.0000 C   0  0  0  0  0  0  0  0  0  0  0  0
   -2.1875    3.9875    0.0000 C   0  0  0  0  0  0  0  0  0  0  0  0
   -3.2083    1.4750    0.0000 C   0  0  0  0  0  0  0  0  0  0  0  0
   -3.6333    1.4833    0.0000 C   0  0  0  0  0  0  0  0  0  0  0  0
   -1.2333    2.0500    0.0000 C   0  0  0  0  0  0  0  0  0  0  0  0
   -2.5958    4.0667    0.0000 C   0  0  0  0  0  0  0  0  0  0  0  0
   -1.2333    1.6333    0.0000 C   0  0  3  0  0  0  0  0  0  0  0  0
   -1.9125    4.3042    0.0000 Cl  0  0  0  0  0  0  0  0  0  0  0  0
   -3.0208    3.0708    0.0000 O   0  0  0  0  0  0  0  0  0  0  0  0
   -4.2583    1.8458    0.0000 C   0  0  0  0  0  0  0  0  0  0  0  0
   -3.8375    1.1208    0.0000 C   0  0  0  0  0  0  0  0  0  0  0  0
   -3.4208    3.1583    0.0000 C   0  0  0  0  0  0  0  0  0  0  0  0
   -0.8708    1.4250    0.0000 C   0  0  0  0  0  0  0  0  0  0  0  0
   -4.4708    1.4833    0.0000 C   0  0  0  0  0  0  0  0  0  0  0  0
   -4.2583    1.1250    0.0000 C   0  0  0  0  0  0  0  0  0  0  0  0
  2  1  2  0  0  0  0
  3  1  1  0  0  0  0
  4  1  1  0  0  0  0
  5  3  2  0  0  0  0
  6  2  1  0  0  0  0
  7  4  1  0  0  0  0
  8  7  1  0  0  0  0
  9  2  1  0  0  0  0
 10  3  1  0  0  0  0
 11  8  2  0  0  0  0
 12  5  1  0  0  0  0
 13  4  2  0  0  0  0
 14  8  1  0  0  0  0
 15 19  1  0  0  0  0
 16 14  2  0  0  0  0
 17 11  1  0  0  0  0
 18  9  1  0  0  0  0
 19 18  1  0  0  0  0
 20 10  1  0  0  0  0
 21 16  1  0  0  0  0
 22 20  1  0  0  0  0
 23 17  1  0  0  0  0
 24 14  1  0  0  0  0
 25 15  2  0  0  0  0
 26 19  2  0  0  0  0
 27 24  1  0  0  0  0
 28 22  1  0  0  0  0
 29 30  2  0  0  0  0
 30 26  1  0  0  0  0
  6  5  1  0  0  0  0
 12 22  1  0  0  0  0
 21 17  2  0  0  0  0
 29 25  1  0  0  0  0
M  END
> <#>
1563

> <PLATE>
LAT020

> <ROW>
C

> <COL>
7

> <COORD>
C07

> <LATID>
LAT020C07

> <Supplier>
Chembridge

> <Suplier_CAT#>
7607294

> <Name>
Novel

> <Concentration_(mM)>
2.5

> <IC50_(µM)>
inactive

> <Yeast_Active?>
-

> <Pubchem_CID>
1316128

$$$$
