
  -ISIS-  08130814242D

 34 40  0  0  0  0  0  0  0  0999 V2000
    0.5402   -4.0750    0.0000 C   0  0  0  0  0  0  0  0  0  0  0  0
    0.5391   -4.9023    0.0000 C   0  0  0  0  0  0  0  0  0  0  0  0
    1.2539   -5.3152    0.0000 C   0  0  0  0  0  0  0  0  0  0  0  0
    1.2521   -3.6622    0.0000 C   0  0  0  0  0  0  0  0  0  0  0  0
    1.9675   -4.0713    0.0000 C   0  0  0  0  0  0  0  0  0  0  0  0
    1.9709   -4.9044    0.0000 C   0  0  0  0  0  0  0  0  0  0  0  0
    2.6941   -5.3180    0.0000 N   0  0  0  0  0  0  0  0  0  0  0  0
    3.4104   -4.0654    0.0000 N   0  0  3  0  0  0  0  0  0  0  0  0
    3.4124   -4.9002    0.0000 C   0  0  0  0  0  0  0  0  0  0  0  0
    4.1322   -5.3136    0.0000 N   0  0  0  0  0  0  0  0  0  0  0  0
    4.1284   -3.6441    0.0000 C   0  0  0  0  0  0  0  0  0  0  0  0
    4.8529   -4.0621    0.0000 C   0  0  0  0  0  0  0  0  0  0  0  0
    4.8541   -4.9004    0.0000 C   0  0  0  0  0  0  0  0  0  0  0  0
    5.5766   -5.3162    0.0000 C   0  0  0  0  0  0  0  0  0  0  0  0
    5.5743   -3.6396    0.0000 C   0  0  0  0  0  0  0  0  0  0  0  0
    6.3015   -4.0600    0.0000 C   0  0  1  0  0  0  0  0  0  0  0  0
    6.2997   -4.9002    0.0000 C   0  0  0  0  0  0  0  0  0  0  0  0
    7.0224   -5.3195    0.0000 C   0  0  0  0  0  0  0  0  0  0  0  0
    7.7515   -4.9032    0.0000 C   0  0  0  0  0  0  0  0  0  0  0  0
    7.0259   -3.6391    0.0000 C   0  0  3  0  0  0  0  0  0  0  0  0
    7.7549   -4.0683    0.0000 C   0  0  3  0  0  0  0  0  0  0  0  0
    7.7674   -2.3795    0.0000 C   0  0  0  0  0  0  0  0  0  0  0  0
    7.0290   -2.7956    0.0000 C   0  0  0  0  0  0  0  0  0  0  0  0
    8.4964   -2.8086    0.0000 C   0  0  1  0  0  0  0  0  0  0  0  0
    8.4866   -3.6498    0.0000 C   0  0  1  0  0  0  0  0  0  0  0  0
    9.2835   -3.9191    0.0000 C   0  0  0  0  0  0  0  0  0  0  0  0
    9.7859   -3.2444    0.0000 C   0  0  0  0  0  0  0  0  0  0  0  0
    9.2994   -2.5581    0.0000 C   0  0  2  0  0  0  0  0  0  0  0  0
    9.5083   -1.7542    0.0000 O   0  0  0  0  0  0  0  0  0  0  0  0
    8.2792   -2.0083    0.0000 C   0  0  0  0  0  0  0  0  0  0  0  0
   10.1208   -2.5542    0.0000 C   0  0  0  0  0  0  0  0  0  0  0  0
   10.9422   -2.5502    0.0000 N   0  0  0  0  0  0  0  0  0  0  0  0
    8.6958   -4.4417    0.0000 H   0  0  0  0  0  0  0  0  0  0  0  0
    6.0833   -3.2583    0.0000 C   0  0  0  0  0  0  0  0  0  0  0  0
 16 15  1  0  0  0  0
 16 17  1  0  0  0  0
  7  9  2  0  0  0  0
  5  8  1  0  0  0  0
  8  9  1  0  0  0  0
  1  2  2  0  0  0  0
 16 20  1  0  0  0  0
 17 18  1  0  0  0  0
 18 19  1  0  0  0  0
 19 21  1  0  0  0  0
 20 21  1  0  0  0  0
  5  4  2  0  0  0  0
  4  1  1  0  0  0  0
  5  6  1  0  0  0  0
  8 11  1  0  0  0  0
 20 23  1  0  0  0  0
 21 25  1  0  0  0  0
 24 22  1  0  0  0  0
 22 23  1  0  0  0  0
 24 25  1  0  0  0  0
  9 10  1  0  0  0  0
 10 13  2  0  0  0  0
 12 11  2  0  0  0  0
 12 13  1  0  0  0  0
 25 26  1  0  0  0  0
 26 27  1  0  0  0  0
 27 28  1  0  0  0  0
 28 24  1  0  0  0  0
  2  3  1  0  0  0  0
 28 29  1  1  0  0  0
  3  6  2  0  0  0  0
 24 30  1  1  0  0  0
  6  7  1  0  0  0  0
 28 31  1  6  0  0  0
 12 15  1  0  0  0  0
 31 32  3  0  0  0  0
 13 14  1  0  0  0  0
 25 33  1  6  0  0  0
 14 17  2  0  0  0  0
 16 34  1  1  0  0  0
M  END
> <#>
291

> <PLATE>
LAT004

> <ROW>
C

> <COL>
8

> <COORD>
C08

> <LATID>
LAT004C08

> <Supplier>
Sigma

> <Suplier_CAT#>
W-104

> <Name>
Win 62,577

> <Concentration_(mM)>
2.5

> <IC50_(µM)>
>100

> <Yeast_Active?>
+

> <Pubchem_CID>
6604045

> <Description>
NK1 tachykinin receptor antagonist

$$$$
