
  -ISIS-  08130814242D

 16 17  0  0  0  0  0  0  0  0999 V2000
    6.7240   -4.4979    0.0000 C   0  0  0  0  0  0  0  0  0  0  0  0
    5.6414   -3.8729    0.0000 C   0  0  0  0  0  0  0  0  0  0  0  0
    4.5589   -4.4979    0.0000 C   0  0  0  0  0  0  0  0  0  0  0  0
    3.4764   -3.8729    0.0000 C   0  0  0  0  0  0  0  0  0  0  0  0
    3.4764   -2.6229    0.0000 C   0  0  0  0  0  0  0  0  0  0  0  0
    4.5589   -1.9979    0.0000 C   0  0  0  0  0  0  0  0  0  0  0  0
    5.6414   -2.6229    0.0000 C   0  0  0  0  0  0  0  0  0  0  0  0
    6.7240   -5.7479    0.0000 O   0  0  0  0  0  0  0  0  0  0  0  0
    7.8065   -3.8729    0.0000 C   0  0  0  0  0  0  0  0  0  0  0  0
    7.8065   -2.6229    0.0000 C   0  0  0  0  0  0  0  0  0  0  0  0
    8.8890   -1.9979    0.0000 C   0  0  0  0  0  0  0  0  0  0  0  0
    9.9716   -2.6229    0.0000 C   0  0  0  0  0  0  0  0  0  0  0  0
    9.9716   -3.8729    0.0000 C   0  0  0  0  0  0  0  0  0  0  0  0
    8.8890   -4.4979    0.0000 C   0  0  0  0  0  0  0  0  0  0  0  0
    4.5589   -5.7479    0.0000 O   0  0  0  0  0  0  0  0  0  0  0  0
    4.5589   -0.7479    0.0000 Br  0  0  0  0  0  0  0  0  0  0  0  0
  1  2  1  0  0  0  0
  2  3  1  0  0  0  0
  3  4  2  0  0  0  0
  4  5  1  0  0  0  0
  5  6  2  0  0  0  0
  6  7  1  0  0  0  0
  2  7  2  0  0  0  0
  9 10  1  0  0  0  0
 10 11  2  0  0  0  0
 11 12  1  0  0  0  0
 12 13  2  0  0  0  0
 13 14  1  0  0  0  0
  9 14  2  0  0  0  0
  1  8  2  0  0  0  0
  1  9  1  0  0  0  0
  3 15  1  0  0  0  0
  6 16  1  0  0  0  0
M  END
> <#>
355

> <PLATE>
LAT005

> <ROW>
C

> <COL>
6

> <COORD>
C06

> <LATID>
LAT005C06

> <Supplier>
Aldrich

> <Suplier_CAT#>
542016

> <Name>
5-Bromo-2-Hydroxybenzophenone

> <Concentration_(mM)>
2.5

> <IC50_(µM)>
21

> <Yeast_Active?>
-

> <Pubchem_CID>
229009

$$$$
