
  -ISIS-  08130814242D

 15 16  0  0  0  0  0  0  0  0999 V2000
   -1.8333   -0.6667    0.0000 C   0  0  0  0  0  0  0  0  0  0  0  0
   -2.3125   -1.5000    0.0000 C   0  0  0  0  0  0  0  0  0  0  0  0
   -2.3125    0.1625    0.0000 N   0  0  0  0  0  0  0  0  0  0  0  0
   -0.8833   -0.6667    0.0000 S   0  0  0  0  0  0  0  0  0  0  0  0
   -3.7625   -0.6667    0.0000 N   0  0  0  0  0  0  0  0  0  0  0  0
   -3.2833    0.1625    0.0000 C   0  0  0  0  0  0  0  0  0  0  0  0
    0.5542    0.1625    0.0000 C   0  0  0  0  0  0  0  0  0  0  0  0
   -3.2833   -1.5000    0.0000 C   0  0  0  0  0  0  0  0  0  0  0  0
    1.0375   -0.6667    0.0000 O   0  0  0  0  0  0  0  0  0  0  0  0
   -0.4000    0.1625    0.0000 C   0  0  0  0  0  0  0  0  0  0  0  0
    1.0375    0.9958    0.0000 O   0  0  0  0  0  0  0  0  0  0  0  0
   -1.8458   -2.3292    0.0000 C   0  0  0  0  0  0  0  0  0  0  0  0
   -3.7625   -2.3292    0.0000 C   0  0  0  0  0  0  0  0  0  0  0  0
   -2.3208   -3.1542    0.0000 C   0  0  0  0  0  0  0  0  0  0  0  0
   -3.2833   -3.1542    0.0000 C   0  0  0  0  0  0  0  0  0  0  0  0
  2  1  1  0  0  0  0
  3  1  2  0  0  0  0
  4  1  1  0  0  0  0
  5  6  2  0  0  0  0
  6  3  1  0  0  0  0
  7 10  1  0  0  0  0
  8  2  2  0  0  0  0
  9  7  2  0  0  0  0
 10  4  1  0  0  0  0
 11  7  1  0  0  0  0
 12  2  1  0  0  0  0
 13  8  1  0  0  0  0
 14 12  2  0  0  0  0
 15 14  1  0  0  0  0
  5  8  1  0  0  0  0
 15 13  2  0  0  0  0
M  END
> <#>
1986

> <PLATE>
LAT025

> <ROW>
B

> <COL>
10

> <COORD>
B10

> <LATID>
LAT025B10

> <Supplier>
Chembridge

> <Suplier_CAT#>
5509623

> <Sec_Name>
145_C09

> <Concentration_(mM)>
2.5

> <IC50_(µM)>
100

> <Yeast_Active?>
-

> <Pubchem_CID>
736089

$$$$
