
  -ISIS-  08130814242D

 26 28  0  0  0  0  0  0  0  0999 V2000
    2.1000    1.3625    0.0000 N   0  0  3  0  0  0  0  0  0  0  0  0
    1.0542    1.1625    0.0000 C   0  0  0  0  0  0  0  0  0  0  0  0
    0.5500    2.0500    0.0000 C   0  0  0  0  0  0  0  0  0  0  0  0
    2.1917    2.4458    0.0000 N   0  0  0  0  0  0  0  0  0  0  0  0
    1.2292    2.8458    0.0000 C   0  0  0  0  0  0  0  0  0  0  0  0
   -5.2708    1.1958    0.0000 N   0  3  0  0  0  0  0  0  0  0  0  0
   -0.4958    2.0500    0.0000 N   0  0  0  0  0  0  0  0  0  0  0  0
   -2.0958    1.1208    0.0000 C   0  0  0  0  0  0  0  0  0  0  0  0
   -4.2208    1.1625    0.0000 C   0  0  0  0  0  0  0  0  0  0  0  0
   -1.0458    1.1208    0.0000 N   0  0  0  0  0  0  0  0  0  0  0  0
   -2.6208    0.2333    0.0000 C   0  0  0  0  0  0  0  0  0  0  0  0
   -2.6125    2.0500    0.0000 C   0  0  0  0  0  0  0  0  0  0  0  0
   -3.6833    2.0625    0.0000 C   0  0  0  0  0  0  0  0  0  0  0  0
   -3.7000    0.2333    0.0000 C   0  0  0  0  0  0  0  0  0  0  0  0
    0.5500    0.2625    0.0000 O   0  0  0  0  0  0  0  0  0  0  0  0
   -5.8500    2.0958    0.0000 O   0  5  0  0  0  0  0  0  0  0  0  0
    2.8792    0.6833    0.0000 C   0  0  0  0  0  0  0  0  0  0  0  0
   -5.8625    0.3333    0.0000 O   0  0  0  0  0  0  0  0  0  0  0  0
   -2.1208   -0.6792    0.0000 Cl  0  0  0  0  0  0  0  0  0  0  0  0
   -2.0625    2.9583    0.0000 Cl  0  0  0  0  0  0  0  0  0  0  0  0
    1.0792    3.8833    0.0000 C   0  0  0  0  0  0  0  0  0  0  0  0
    2.6792   -0.3792    0.0000 C   0  0  0  0  0  0  0  0  0  0  0  0
    3.9167    0.9833    0.0000 C   0  0  0  0  0  0  0  0  0  0  0  0
    3.4542   -1.1000    0.0000 C   0  0  0  0  0  0  0  0  0  0  0  0
    4.7042    0.2958    0.0000 C   0  0  0  0  0  0  0  0  0  0  0  0
    4.4875   -0.7542    0.0000 C   0  0  0  0  0  0  0  0  0  0  0  0
  2  1  1  0  0  0  0
  3  2  1  0  0  0  0
  4  1  1  0  0  0  0
  5  4  2  0  0  0  0
  6  9  1  0  0  0  0
  7  3  2  0  0  0  0
  8 10  1  0  0  0  0
  9 13  2  0  0  0  0
 10  7  1  0  0  0  0
 11  8  1  0  0  0  0
 12  8  2  0  0  0  0
 13 12  1  0  0  0  0
 14 11  2  0  0  0  0
 15  2  2  0  0  0  0
 16  6  1  0  0  0  0
 17  1  1  0  0  0  0
 18  6  2  0  0  0  0
 19 11  1  0  0  0  0
 20 12  1  0  0  0  0
 21  5  1  0  0  0  0
 22 17  1  0  0  0  0
 23 17  2  0  0  0  0
 24 22  2  0  0  0  0
 25 23  1  0  0  0  0
 26 25  2  0  0  0  0
  5  3  1  0  0  0  0
 26 24  1  0  0  0  0
  9 14  1  0  0  0  0
M  CHG  2   6   1  16  -1
M  END
> <#>
1046

> <PLATE>
LAT014

> <ROW>
F

> <COL>
2

> <COORD>
F02

> <LATID>
LAT014F02

> <Supplier>
Chembridge

> <Suplier_CAT#>
5474518

> <Name>
Novel

> <Concentration_(mM)>
2.5

> <IC50_(µM)>
inactive

> <Yeast_Active?>
-

> <Pubchem_CID>
NULL

$$$$
