
  -ISIS-  08130814242D

 23 25  0  0  0  0  0  0  0  0999 V2000
    9.1917   -2.8625    0.0000 C   0  0  0  0  0  0  0  0  0  0  0  0
   14.1500    0.1708    0.0000 C   0  0  0  0  0  0  0  0  0  0  0  0
   10.9250   -5.7167    0.0000 O   0  0  0  0  0  0  0  0  0  0  0  0
   14.2750   -5.6500    0.0000 C   0  0  0  0  0  0  0  0  0  0  0  0
   10.8042    0.0750    0.0000 C   0  0  0  0  0  0  0  0  0  0  0  0
   15.8875   -2.7125    0.0000 C   0  0  0  0  0  0  0  0  0  0  0  0
   -0.9083    2.8000    0.0000 C   0  0  0  0  0  0  0  0  0  0  0  0
    5.8667   -2.9125    0.0000 C   0  0  0  0  0  0  0  0  0  0  0  0
    0.7917   -0.0542    0.0000 N   0  0  0  0  0  0  0  0  0  0  0  0
    9.1625    2.9208    0.0000 C   0  0  0  0  0  0  0  0  0  0  0  0
    0.7250    5.7000    0.0000 S   0  0  0  0  0  0  0  0  0  0  0  0
   -4.2458    2.8000    0.0000 N   0  0  0  0  0  0  0  0  0  0  0  0
    4.1667   -0.0042    0.0000 C   0  0  0  0  0  0  0  0  0  0  0  0
   16.0000   -8.5000    0.0000 O   0  0  0  0  0  0  0  0  0  0  0  0
  -11.0167    8.5000    0.0000 N   0  0  0  0  0  0  0  0  0  0  0  0
    5.8000    2.8833    0.0000 C   0  0  0  0  0  0  0  0  0  0  0  0
   -9.2667    5.6375    0.0000 C   0  0  0  0  0  0  0  0  0  0  0  0
   -5.9333    5.6542    0.0000 C   0  0  0  0  0  0  0  0  0  0  0  0
   15.7500    3.0875    0.0000 C   0  0  0  0  0  0  0  0  0  0  0  0
  -14.3500    8.4375    0.0000 C   0  0  0  0  0  0  0  0  0  0  0  0
  -10.9125    2.7583    0.0000 C   0  0  0  0  0  0  0  0  0  0  0  0
  -16.0000    5.5292    0.0000 C   0  0  0  0  0  0  0  0  0  0  0  0
  -14.2500    2.6958    0.0000 C   0  0  0  0  0  0  0  0  0  0  0  0
  2  5  1  0  0  0  0
  3  1  1  0  0  0  0
  4  3  1  0  0  0  0
  5  1  1  0  0  0  0
  6  2  2  0  0  0  0
  7  9  1  0  0  0  0
  8  1  2  0  0  0  0
  9 13  1  0  0  0  0
 10  5  2  0  0  0  0
 11  7  2  0  0  0  0
 12  7  1  0  0  0  0
 13  8  1  0  0  0  0
 14  4  2  0  0  0  0
 15 17  2  0  0  0  0
 16 13  2  0  0  0  0
 17 18  1  0  0  0  0
 18 12  1  0  0  0  0
 19  2  1  0  0  0  0
 20 15  1  0  0  0  0
 21 17  1  0  0  0  0
 22 23  1  0  0  0  0
 23 21  2  0  0  0  0
 10 16  1  0  0  0  0
  4  6  1  0  0  0  0
 22 20  2  0  0  0  0
M  END
> <#>
1537

> <PLATE>
LAT020

> <ROW>
A

> <COL>
4

> <COORD>
A04

> <LATID>
LAT020A04

> <Supplier>
Chembridge

> <Suplier_CAT#>
7804039

> <Name>
Novel

> <Concentration_(mM)>
2.5

> <IC50_(µM)>
>100

> <Yeast_Active?>
-

> <Pubchem_CID>
970707

$$$$
