
  -ISIS-  08130814242D

 21 23  0  0  0  0  0  0  0  0999 V2000
    6.2625   -3.7167    0.0000 N   0  0  3  0  0  0  0  0  0  0  0  0
    6.5917   -2.9625    0.0000 S   0  0  3  0  0  0  0  0  0  0  0  0
    5.4542   -3.8917    0.0000 N   0  0  0  0  0  0  0  0  0  0  0  0
    6.1250   -5.0417    0.0000 N   0  0  0  0  0  0  0  0  0  0  0  0
    6.6750   -4.4292    0.0000 C   0  0  0  0  0  0  0  0  0  0  0  0
    5.3667   -4.7125    0.0000 C   0  0  0  0  0  0  0  0  0  0  0  0
    4.6625   -5.1292    0.0000 C   0  0  0  0  0  0  0  0  0  0  0  0
    7.3042   -3.3750    0.0000 O   0  0  0  0  0  0  0  0  0  0  0  0
    5.8750   -2.5500    0.0000 O   0  0  0  0  0  0  0  0  0  0  0  0
    7.0000   -2.2417    0.0000 C   0  0  0  0  0  0  0  0  0  0  0  0
    7.4917   -4.5167    0.0000 N   0  0  0  0  0  0  0  0  0  0  0  0
    3.9417   -6.3667    0.0000 N   0  0  0  0  0  0  0  0  0  0  0  0
    4.6625   -5.9542    0.0000 C   0  0  0  0  0  0  0  0  0  0  0  0
    3.9417   -4.7167    0.0000 C   0  0  0  0  0  0  0  0  0  0  0  0
    3.2292   -5.9542    0.0000 C   0  0  0  0  0  0  0  0  0  0  0  0
    7.8292   -2.2417    0.0000 C   0  0  0  0  0  0  0  0  0  0  0  0
    6.5792   -1.5375    0.0000 C   0  0  0  0  0  0  0  0  0  0  0  0
    3.2292   -5.1292    0.0000 C   0  0  0  0  0  0  0  0  0  0  0  0
    8.2375   -1.5167    0.0000 C   0  0  0  0  0  0  0  0  0  0  0  0
    6.9875   -0.8167    0.0000 C   0  0  0  0  0  0  0  0  0  0  0  0
    7.8167   -0.8042    0.0000 C   0  0  0  0  0  0  0  0  0  0  0  0
  2  1  1  0  0  0  0
  3  1  1  0  0  0  0
  4  5  2  0  0  0  0
  5  1  1  0  0  0  0
  6  3  2  0  0  0  0
  7  6  1  0  0  0  0
  8  2  2  0  0  0  0
  9  2  2  0  0  0  0
 10  2  1  0  0  0  0
 11  5  1  0  0  0  0
 12 13  2  0  0  0  0
 13  7  1  0  0  0  0
 14  7  2  0  0  0  0
 15 18  2  0  0  0  0
 16 10  2  0  0  0  0
 17 10  1  0  0  0  0
 18 14  1  0  0  0  0
 19 16  1  0  0  0  0
 20 17  2  0  0  0  0
 21 20  1  0  0  0  0
  6  4  1  0  0  0  0
 19 21  2  0  0  0  0
 15 12  1  0  0  0  0
M  END
> <#>
1687

> <PLATE>
LAT022

> <ROW>
G

> <COL>
2

> <COORD>
G02

> <LATID>
LAT022G02

> <Supplier>
Chembridge

> <Suplier_CAT#>
7790242

> <Name>
Novel

> <Concentration_(mM)>
2.5

> <IC50_(µM)>
inactive

> <Yeast_Active?>
-

> <Pubchem_CID>
969953

$$$$
