
  -ISIS-  08130814242D

 37 41  0  0  0  0  0  0  0  0999 V2000
    4.7000   -3.4292    0.0000 C   0  0  2  0  0  0  0  0  0  0  0  0
    4.7000   -4.2917    0.0000 C   0  0  0  0  0  0  0  0  0  0  0  0
    3.9375   -4.7417    0.0000 C   0  0  2  0  0  0  0  0  0  0  0  0
    6.9500   -2.1167    0.0000 C   0  0  2  0  0  0  0  0  0  0  0  0
    5.4500   -2.9792    0.0000 C   0  0  3  0  0  0  0  0  0  0  0  0
    3.9375   -2.9792    0.0000 C   0  0  2  0  0  0  0  0  0  0  0  0
    6.1875   -3.4292    0.0000 C   0  0  3  0  0  0  0  0  0  0  0  0
    3.2000   -4.2917    0.0000 C   0  0  1  0  0  0  0  0  0  0  0  0
    6.9500   -2.9792    0.0000 C   0  0  3  0  0  0  0  0  0  0  0  0
    3.2000   -3.4292    0.0000 C   0  0  3  0  0  0  0  0  0  0  0  0
    7.7000   -1.6667    0.0000 C   0  0  1  0  0  0  0  0  0  0  0  0
    6.1875   -5.1167    0.0000 C   0  0  0  0  0  0  0  0  0  0  0  0
    8.4625   -2.1167    0.0000 O   0  0  0  0  0  0  0  0  0  0  0  0
    8.4125   -1.2667    0.0000 C   0  0  0  0  0  0  0  0  0  0  0  0
    8.4625   -2.9792    0.0000 C   0  0  0  0  0  0  0  0  0  0  0  0
    6.1875   -1.6667    0.0000 C   0  0  0  0  0  0  0  0  0  0  0  0
    5.4500   -2.1167    0.0000 C   0  0  0  0  0  0  0  0  0  0  0  0
    2.4792   -4.6667    0.0000 O   0  0  0  0  0  0  0  0  0  0  0  0
    7.7000   -3.4292    0.0000 C   0  0  0  0  0  0  0  0  0  0  0  0
    3.9375   -2.1167    0.0000 C   0  0  0  0  0  0  0  0  0  0  0  0
    2.4667   -5.5667    0.0000 C   0  0  0  0  0  0  0  0  0  0  0  0
    3.2000   -1.6667    0.0000 C   0  0  0  0  0  0  0  0  0  0  0  0
    5.3500   -4.6917    0.0000 O   0  0  0  0  0  0  0  0  0  0  0  0
    8.5500   -0.4292    0.0000 C   0  0  0  0  0  0  0  0  0  0  0  0
    9.2292   -1.6792    0.0000 C   0  0  0  0  0  0  0  0  0  0  0  0
    9.4000   -0.2667    0.0000 O   0  0  0  0  0  0  0  0  0  0  0  0
    9.2292   -3.4292    0.0000 O   0  0  0  0  0  0  0  0  0  0  0  0
    9.8000   -1.0542    0.0000 C   0  0  0  0  0  0  0  0  0  0  0  0
    1.7000   -6.0667    0.0000 O   0  0  0  0  0  0  0  0  0  0  0  0
    3.2000   -0.8167    0.0000 O   0  0  0  0  0  0  0  0  0  0  0  0
    4.0375   -3.8667    0.0000 C   0  0  0  0  0  0  0  0  0  0  0  0
    6.9500   -1.2292    0.0000 C   0  0  0  0  0  0  0  0  0  0  0  0
    3.2000   -2.5917    0.0000 C   0  0  0  0  0  0  0  0  0  0  0  0
    2.5500   -3.8542    0.0000 C   0  0  0  0  0  0  0  0  0  0  0  0
    2.4667   -2.1167    0.0000 O   0  0  0  0  0  0  0  0  0  0  0  0
    3.2667   -6.0167    0.0000 C   0  0  0  0  0  0  0  0  0  0  0  0
    1.7792   -1.7042    0.0000 C   0  0  0  0  0  0  0  0  0  0  0  0
  1  2  1  6  0  0  0
  3  2  1  6  0  0  0
  4 16  1  0  0  0  0
  5  1  1  0  0  0  0
  6  1  1  0  0  0  0
  7  5  1  0  0  0  0
  8 10  1  0  0  0  0
  9  7  1  0  0  0  0
 10  6  1  0  0  0  0
 11  4  1  0  0  0  0
 12  7  1  0  0  0  0
 13 11  1  0  0  0  0
 11 14  1  6  0  0  0
 15 19  1  0  0  0  0
 16 17  1  0  0  0  0
 17  5  1  0  0  0  0
  8 18  1  6  0  0  0
 19  9  1  0  0  0  0
  6 20  1  6  0  0  0
 21 18  1  0  0  0  0
 22 20  1  0  0  0  0
 23  2  2  0  0  0  0
 24 14  2  0  0  0  0
 25 14  1  0  0  0  0
 26 24  1  0  0  0  0
 27 15  2  0  0  0  0
 28 25  2  0  0  0  0
 29 21  2  0  0  0  0
 30 22  2  0  0  0  0
  1 31  1  6  0  0  0
  4 32  1  6  0  0  0
 33 10  1  0  0  0  0
 34 10  1  0  0  0  0
 35 22  1  0  0  0  0
 36 21  1  0  0  0  0
 37 35  1  0  0  0  0
  3  8  1  0  0  0  0
 12  3  1  0  0  0  0
  9  4  1  0  0  0  0
 15 13  1  0  0  0  0
 28 26  1  0  0  0  0
M  END
> <#>
8

> <PLATE>
LAT001

> <ROW>
H

> <COL>
2

> <COORD>
H02

> <LATID>
LAT001H02

> <Supplier>
Microsource

> <Suplier_CAT#>
00100465

> <Name>
Dihydrofissinolide

> <Concentration_(mM)>
2.5

> <IC50_(µM)>
27

> <Yeast_Active?>
-

> <Pubchem_CID>
5008752

> <Source>
derivative of fissinolide (00100031)

$$$$
