
  -ISIS-  08130814242D

 20 20  0  0  0  0  0  0  0  0999 V2000
    0.0000    0.3708    0.0000 C   0  0  0  0  0  0  0  0  0  0  0  0
   -0.4000    0.9125    0.0000 N   0  0  0  0  0  0  0  0  0  0  0  0
   -0.4000   -0.1875    0.0000 N   0  0  0  0  0  0  0  0  0  0  0  0
   -1.0458    0.7125    0.0000 C   0  0  0  0  0  0  0  0  0  0  0  0
   -1.0458    0.0333    0.0000 C   0  0  0  0  0  0  0  0  0  0  0  0
   -1.6208    1.0500    0.0000 C   0  0  0  0  0  0  0  0  0  0  0  0
    0.6792    0.3708    0.0000 S   0  0  0  0  0  0  0  0  0  0  0  0
    1.7000   -0.2042    0.0000 C   0  0  0  0  0  0  0  0  0  0  0  0
    2.0500   -0.7792    0.0000 C   0  0  3  0  0  0  0  0  0  0  0  0
    1.0167   -0.2292    0.0000 C   0  0  0  0  0  0  0  0  0  0  0  0
   -1.6208   -0.3292    0.0000 C   0  0  0  0  0  0  0  0  0  0  0  0
    2.0375    0.3708    0.0000 O   0  0  0  0  0  0  0  0  0  0  0  0
   -2.2208    0.7125    0.0000 C   0  0  0  0  0  0  0  0  0  0  0  0
   -2.2208    0.0333    0.0000 C   0  0  0  0  0  0  0  0  0  0  0  0
   -2.8125    1.0458    0.0000 O   0  0  0  0  0  0  0  0  0  0  0  0
    1.7292   -1.3667    0.0000 C   0  0  0  0  0  0  0  0  0  0  0  0
    2.7167   -0.7667    0.0000 C   0  0  0  0  0  0  0  0  0  0  0  0
    2.5167   -0.3042    0.0000 C   0  0  0  0  0  0  0  0  0  0  0  0
   -3.3958    0.7000    0.0000 C   0  0  0  0  0  0  0  0  0  0  0  0
   -1.0458   -1.8875    0.0000 Br  0  0  0  0  0  0  0  0  0  0  0  0
  2  1  2  0  0  0  0
  3  1  1  0  0  0  0
  4  2  1  0  0  0  0
  5  3  1  0  0  0  0
  6  4  1  0  0  0  0
  7  1  1  0  0  0  0
  8 10  1  0  0  0  0
  9  8  1  0  0  0  0
 10  7  1  0  0  0  0
 11  5  1  0  0  0  0
 12  8  2  0  0  0  0
 13  6  2  0  0  0  0
 14 11  2  0  0  0  0
 15 13  1  0  0  0  0
 16  9  1  0  0  0  0
 17  9  1  0  0  0  0
 18  9  1  0  0  0  0
 19 15  1  0  0  0  0
  4  5  2  0  0  0  0
 13 14  1  0  0  0  0
M  END
> <#>
1791

> <PLATE>
LAT023

> <ROW>
G

> <COL>
5

> <COORD>
G05

> <LATID>
LAT023G05

> <Supplier>
Chembridge

> <Suplier_CAT#>
5566495

> <Name>
Novel

> <Sec_Name>
174_B04

> <Concentration_(mM)>
2.5

> <IC50_(µM)>
12

> <Yeast_Active?>
-

> <Pubchem_CID>
NULL

$$$$
