
  -ISIS-  08130814242D

 21 22  0  0  0  0  0  0  0  0999 V2000
    0.3042   -0.1042    0.0000 C   0  0  0  0  0  0  0  0  0  0  0  0
   -3.2500    2.3333    0.0000 C   0  0  3  0  0  0  0  0  0  0  0  0
    1.3167   -1.4042    0.0000 C   0  0  0  0  0  0  0  0  0  0  0  0
    0.4375   -1.0500    0.0000 C   0  0  0  0  0  0  0  0  0  0  0  0
   -2.4958    2.8958    0.0000 C   0  0  0  0  0  0  0  0  0  0  0  0
   -1.6333    2.5208    0.0000 C   0  0  0  0  0  0  0  0  0  0  0  0
    2.0792   -0.8167    0.0000 C   0  0  0  0  0  0  0  0  0  0  0  0
   -0.6625    1.2000    0.0000 N   0  0  0  0  0  0  0  0  0  0  0  0
    1.0542    0.4500    0.0000 C   0  0  0  0  0  0  0  0  0  0  0  0
    1.9292    0.0958    0.0000 C   0  0  0  0  0  0  0  0  0  0  0  0
   -2.4708    1.7958    0.0000 O   0  0  0  0  0  0  0  0  0  0  0  0
   -4.0333    1.7958    0.0000 O   0  0  0  0  0  0  0  0  0  0  0  0
   -0.5500    0.2625    0.0000 C   0  0  0  0  0  0  0  0  0  0  0  0
   -1.5208    1.5708    0.0000 N   0  0  0  0  0  0  0  0  0  0  0  0
   -0.9000    3.0833    0.0000 O   0  0  0  0  0  0  0  0  0  0  0  0
    1.4292   -2.3500    0.0000 Br  0  0  0  0  0  0  0  0  0  0  0  0
   -0.3125   -1.6292    0.0000 O   0  0  0  0  0  0  0  0  0  0  0  0
    2.6792    0.6625    0.0000 Br  0  0  0  0  0  0  0  0  0  0  0  0
   -3.9000    2.9333    0.0000 C   0  0  0  0  0  0  0  0  0  0  0  0
   -3.7333    0.8500    0.0000 C   0  0  0  0  0  0  0  0  0  0  0  0
   -2.7708    0.8500    0.0000 C   0  0  0  0  0  0  0  0  0  0  0  0
  2  5  1  0  0  0  0
  3  4  1  0  0  0  0
  4  1  2  0  0  0  0
  5  6  1  0  0  0  0
  6 14  1  0  0  0  0
  7 10  1  0  0  0  0
  8 13  2  0  0  0  0
  9  1  1  0  0  0  0
 10  9  2  0  0  0  0
 11  2  1  0  0  0  0
 12  2  1  0  0  0  0
 13  1  1  0  0  0  0
 14  8  1  0  0  0  0
 15  6  2  0  0  0  0
 16  3  1  0  0  0  0
 17  4  1  0  0  0  0
 18 10  1  0  0  0  0
 19  2  1  0  0  0  0
 20 12  1  0  0  0  0
 21 11  1  0  0  0  0
  3  7  2  0  0  0  0
 21 20  1  0  0  0  0
M  END
> <#>
955

> <PLATE>
LAT012

> <ROW>
C

> <COL>
11

> <COORD>
C11

> <LATID>
LAT012C11

> <Supplier>
Chembridge

> <Suplier_CAT#>
5737300

> <Name>
Novel

> <Sec_Name>
235_D02

> <Concentration_(mM)>
2.5

> <IC50_(µM)>
35

> <Yeast_Active?>
+

> <Pubchem_CID>
NULL

$$$$
