
  -ISIS-  08130814242D

 25 28  0  0  0  0  0  0  0  0999 V2000
    4.4500    1.8208    0.0000 C   0  0  0  0  0  0  0  0  0  0  0  0
    4.8250    1.1750    0.0000 C   0  0  0  0  0  0  0  0  0  0  0  0
    4.8250    2.4708    0.0000 C   0  0  0  0  0  0  0  0  0  0  0  0
    5.5750    2.4708    0.0000 C   0  0  0  0  0  0  0  0  0  0  0  0
    5.5750    1.1750    0.0000 O   0  0  0  0  0  0  0  0  0  0  0  0
    3.7000    1.8208    0.0000 C   0  0  0  0  0  0  0  0  0  0  0  0
    5.9500    1.8208    0.0000 C   0  0  0  0  0  0  0  0  0  0  0  0
    5.9500    3.1208    0.0000 C   0  0  0  0  0  0  0  0  0  0  0  0
    3.3250    2.4708    0.0000 N   0  0  0  0  0  0  0  0  0  0  0  0
    4.4500    0.5250    0.0000 O   0  0  0  0  0  0  0  0  0  0  0  0
    2.5750    3.7708    0.0000 N   0  0  0  0  0  0  0  0  0  0  0  0
    6.7000    1.8208    0.0000 C   0  0  0  0  0  0  0  0  0  0  0  0
    3.3250    1.1750    0.0000 O   0  0  0  0  0  0  0  0  0  0  0  0
    6.7000    3.1208    0.0000 C   0  0  0  0  0  0  0  0  0  0  0  0
    7.0750    2.4708    0.0000 C   0  0  0  0  0  0  0  0  0  0  0  0
    2.5750    2.4708    0.0000 C   0  0  0  0  0  0  0  0  0  0  0  0
    2.1917    3.1208    0.0000 C   0  0  0  0  0  0  0  0  0  0  0  0
    5.5750    3.7708    0.0000 C   0  0  0  0  0  0  0  0  0  0  0  0
    2.1917    4.4167    0.0000 C   0  0  0  0  0  0  0  0  0  0  0  0
    7.0750    3.7708    0.0000 C   0  0  0  0  0  0  0  0  0  0  0  0
    1.4500    3.1208    0.0000 C   0  0  0  0  0  0  0  0  0  0  0  0
    5.9500    4.4167    0.0000 C   0  0  0  0  0  0  0  0  0  0  0  0
    1.4500    4.4167    0.0000 C   0  0  0  0  0  0  0  0  0  0  0  0
    6.7000    4.4167    0.0000 C   0  0  0  0  0  0  0  0  0  0  0  0
    1.0750    3.7708    0.0000 C   0  0  0  0  0  0  0  0  0  0  0  0
  2  1  1  0  0  0  0
  3  1  2  0  0  0  0
  4  3  1  0  0  0  0
  5  2  1  0  0  0  0
  6  1  1  0  0  0  0
  7  4  2  0  0  0  0
  8  4  1  0  0  0  0
  9  6  1  0  0  0  0
 10  2  2  0  0  0  0
 11 17  2  0  0  0  0
 12  7  1  0  0  0  0
 13  6  2  0  0  0  0
 14  8  1  0  0  0  0
 15 14  1  0  0  0  0
 16  9  1  0  0  0  0
 17 16  1  0  0  0  0
 18  8  2  0  0  0  0
 19 11  1  0  0  0  0
 20 14  2  0  0  0  0
 21 17  1  0  0  0  0
 22 18  1  0  0  0  0
 23 25  1  0  0  0  0
 24 22  2  0  0  0  0
 25 21  2  0  0  0  0
  7  5  1  0  0  0  0
 15 12  2  0  0  0  0
 24 20  1  0  0  0  0
 19 23  2  0  0  0  0
M  END
> <#>
1583

> <PLATE>
LAT020

> <ROW>
G

> <COL>
9

> <COORD>
G09

> <LATID>
LAT020G09

> <Supplier>
Chembridge

> <Suplier_CAT#>
7974700

> <Name>
Novel

> <Concentration_(mM)>
2.5

> <IC50_(µM)>
inactive

> <Yeast_Active?>
-

> <Pubchem_CID>
1505052

$$$$
