
  -ISIS-  08130814242D

 18 19  0  0  0  0  0  0  0  0999 V2000
   -3.8500   -0.8292    0.0000 C   0  0  0  0  0  0  0  0  0  0  0  0
   -3.2125   -0.4542    0.0000 C   0  0  0  0  0  0  0  0  0  0  0  0
   -3.8500   -1.5792    0.0000 C   0  0  0  0  0  0  0  0  0  0  0  0
   -3.2125    0.2958    0.0000 C   0  0  0  0  0  0  0  0  0  0  0  0
   -2.5708   -0.8292    0.0000 O   0  0  0  0  0  0  0  0  0  0  0  0
   -4.4958   -0.4542    0.0000 O   0  0  0  0  0  0  0  0  0  0  0  0
   -3.2125   -1.9500    0.0000 C   0  0  0  0  0  0  0  0  0  0  0  0
   -4.4958   -1.9500    0.0000 C   0  0  0  0  0  0  0  0  0  0  0  0
   -2.5708    0.6625    0.0000 C   0  0  0  0  0  0  0  0  0  0  0  0
   -3.8500    0.6625    0.0000 C   0  0  0  0  0  0  0  0  0  0  0  0
   -3.2125    1.7833    0.0000 C   0  0  0  0  0  0  0  0  0  0  0  0
   -3.8500   -3.0667    0.0000 C   0  0  0  0  0  0  0  0  0  0  0  0
   -2.5708    1.4125    0.0000 C   0  0  0  0  0  0  0  0  0  0  0  0
   -3.2125   -2.7000    0.0000 C   0  0  0  0  0  0  0  0  0  0  0  0
   -3.8500    1.4125    0.0000 C   0  0  0  0  0  0  0  0  0  0  0  0
   -4.4958   -2.7000    0.0000 C   0  0  0  0  0  0  0  0  0  0  0  0
   -3.2125    2.5333    0.0000 O   0  0  0  0  0  0  0  0  0  0  0  0
   -3.8500   -3.8167    0.0000 O   0  0  0  0  0  0  0  0  0  0  0  0
  2  1  1  0  0  0  0
  3  1  1  0  0  0  0
  4  2  1  0  0  0  0
  5  2  2  0  0  0  0
  6  1  2  0  0  0  0
  7  3  1  0  0  0  0
  8  3  2  0  0  0  0
  9  4  2  0  0  0  0
 10  4  1  0  0  0  0
 11 15  1  0  0  0  0
 12 16  2  0  0  0  0
 13  9  1  0  0  0  0
 14  7  2  0  0  0  0
 15 10  2  0  0  0  0
 16  8  1  0  0  0  0
 17 11  1  0  0  0  0
 18 12  1  0  0  0  0
 12 14  1  0  0  0  0
 13 11  2  0  0  0  0
M  END
> <#>
1255

> <PLATE>
LAT016

> <ROW>
G

> <COL>
8

> <COORD>
G08

> <LATID>
LAT016G08

> <Supplier>
Chembridge

> <Suplier_CAT#>
5182723

> <Name>
Novel

> <Concentration_(mM)>
2.5

> <IC50_(µM)>
50

> <Yeast_Active?>
-

> <Pubchem_CID>
458204

$$$$
