
  -ISIS-  08130814242D

 10 10  0  0  0  0  0  0  0  0999 V2000
    0.4228   -3.1183    0.0000 C   0  0  0  0  0  0  0  0  0  0  0  0
    1.6728   -3.1183    0.0000 C   0  0  0  0  0  0  0  0  0  0  0  0
    2.2978   -2.0358    0.0000 C   0  0  0  0  0  0  0  0  0  0  0  0
    1.6728   -0.9533    0.0000 O   0  0  0  0  0  0  0  0  0  0  0  0
    3.5478   -2.0358    0.0000 C   0  0  0  0  0  0  0  0  0  0  0  0
    4.1728   -3.1184    0.0000 C   0  0  0  0  0  0  0  0  0  0  0  0
    3.5478   -4.2009    0.0000 C   0  0  0  0  0  0  0  0  0  0  0  0
    2.2978   -4.2009    0.0000 C   0  0  0  0  0  0  0  0  0  0  0  0
   -0.2022   -4.2009    0.0000 O   0  0  0  0  0  0  0  0  0  0  0  0
   -0.2022   -2.0358    0.0000 O   0  0  0  0  0  0  0  0  0  0  0  0
  1  2  1  0  0  0  0
  2  3  1  0  0  0  0
  3  4  1  0  0  0  0
  3  5  2  0  0  0  0
  5  6  1  0  0  0  0
  6  7  2  0  0  0  0
  7  8  1  0  0  0  0
  2  8  2  0  0  0  0
  1  9  2  0  0  0  0
  1 10  1  0  0  0  0
M  END
> <#>
370

> <PLATE>
LAT005

> <ROW>
B

> <COL>
8

> <COORD>
B08

> <LATID>
LAT005B08

> <Supplier>
Fluka

> <Suplier_CAT#>
84210

> <Name>
Salicylic Acid

> <Concentration_(mM)>
2.5

> <IC50_(µM)>
>100

> <Yeast_Active?>
-

> <Pubchem_CID>
338

$$$$
