
  -ISIS-  08130814242D

 17 18  0  0  0  0  0  0  0  0999 V2000
   -0.6832    2.7910    0.0000 O   0  0  0  0  0  0  0  0  0  0  0  0
   -1.2622    3.0488    0.0000 C   0  0  0  0  0  0  0  0  0  0  0  0
   -1.7749    2.6763    0.0000 C   0  0  2  0  0  0  0  0  0  0  0  0
   -1.7749    2.0425    0.0000 C   0  0  1  0  0  0  0  0  0  0  0  0
   -1.2622    1.6700    0.0000 O   0  0  0  0  0  0  0  0  0  0  0  0
   -2.3777    1.8467    0.0000 C   0  0  0  0  0  0  0  0  0  0  0  0
   -2.7502    2.3594    0.0000 C   0  0  1  0  0  0  0  0  0  0  0  0
   -2.3777    2.8721    0.0000 O   0  0  0  0  0  0  0  0  0  0  0  0
   -3.3839    2.3594    0.0000 N   0  0  3  0  0  0  0  0  0  0  0  0
   -3.7008    1.8105    0.0000 C   0  0  0  0  0  0  0  0  0  0  0  0
   -3.3839    1.2617    0.0000 O   0  0  0  0  0  0  0  0  0  0  0  0
   -4.3345    1.8105    0.0000 N   0  0  0  0  0  0  0  0  0  0  0  0
   -4.6514    2.3594    0.0000 C   0  0  0  0  0  0  0  0  0  0  0  0
   -5.2852    2.3594    0.0000 O   0  0  0  0  0  0  0  0  0  0  0  0
   -4.3345    2.9082    0.0000 C   0  0  0  0  0  0  0  0  0  0  0  0
   -3.7008    2.9082    0.0000 C   0  0  0  0  0  0  0  0  0  0  0  0
   -4.6514    3.4571    0.0000 Br  0  0  0  0  0  0  0  0  0  0  0  0
  1  2  1  0  0  0  0
  3  2  1  6  0  0  0
  3  4  1  0  0  0  0
  4  5  1  1  0  0  0
  4  6  1  0  0  0  0
  6  7  1  0  0  0  0
  7  8  1  0  0  0  0
  3  8  1  0  0  0  0
  7  9  1  6  0  0  0
  9 10  1  0  0  0  0
 10 11  2  0  0  0  0
 10 12  1  0  0  0  0
 12 13  1  0  0  0  0
 13 14  2  0  0  0  0
 13 15  1  0  0  0  0
 15 16  2  0  0  0  0
  9 16  1  0  0  0  0
 15 17  1  0  0  0  0
M  END
> <#>
452

> <PLATE>
LAT006

> <ROW>
D

> <COL>
8

> <COORD>
D08

> <LATID>
LAT006D08

> <Supplier>
Sigma

> <Suplier_CAT#>
B-5002

> <Name>
5-Bromo-2'-Deoxyuridine

> <Concentration_(mM)>
2.5

> <IC50_(µM)>
26

> <Yeast_Active?>
-

> <Pubchem_CID>
6035

$$$$
