
  -ISIS-  08130814242D

 27 30  0  0  0  0  0  0  0  0999 V2000
    6.1792    4.4625    0.0000 C   0  0  0  0  0  0  0  0  0  0  0  0
    5.4292    5.7625    0.0000 N   0  0  0  0  0  0  0  0  0  0  0  0
    5.4292    4.4625    0.0000 C   0  0  0  0  0  0  0  0  0  0  0  0
    6.1792    5.7625    0.0000 C   0  0  0  0  0  0  0  0  0  0  0  0
    6.5542    5.1042    0.0000 C   0  0  0  0  0  0  0  0  0  0  0  0
    6.5542    3.8208    0.0000 C   0  0  0  0  0  0  0  0  0  0  0  0
    5.0542    5.1042    0.0000 C   0  0  0  0  0  0  0  0  0  0  0  0
    7.3042    3.8208    0.0000 N   0  0  0  0  0  0  0  0  0  0  0  0
    6.5542    6.4042    0.0000 C   0  0  0  0  0  0  0  0  0  0  0  0
    5.0542    3.8208    0.0000 C   0  0  0  0  0  0  0  0  0  0  0  0
    8.8042    2.5208    0.0000 N   0  0  0  0  0  0  0  0  0  0  0  0
    6.1792    3.1708    0.0000 O   0  0  0  0  0  0  0  0  0  0  0  0
    7.6792    7.0625    0.0000 N   0  0  0  0  0  0  0  0  0  0  0  0
    4.3042    5.1042    0.0000 C   0  0  0  0  0  0  0  0  0  0  0  0
    4.3042    3.8208    0.0000 C   0  0  0  0  0  0  0  0  0  0  0  0
    7.6792    3.1708    0.0000 C   0  0  0  0  0  0  0  0  0  0  0  0
    8.4292    3.1708    0.0000 C   0  0  0  0  0  0  0  0  0  0  0  0
    3.9292    4.4625    0.0000 C   0  0  0  0  0  0  0  0  0  0  0  0
    7.3042    6.4042    0.0000 C   0  0  0  0  0  0  0  0  0  0  0  0
    3.9292    3.1708    0.0000 Br  0  0  0  0  0  0  0  0  0  0  0  0
    6.1792    7.0625    0.0000 C   0  0  0  0  0  0  0  0  0  0  0  0
    9.5542    2.5208    0.0000 C   0  0  0  0  0  0  0  0  0  0  0  0
    7.3042    7.7125    0.0000 C   0  0  0  0  0  0  0  0  0  0  0  0
    8.8042    3.8208    0.0000 C   0  0  0  0  0  0  0  0  0  0  0  0
    6.5542    7.7125    0.0000 C   0  0  0  0  0  0  0  0  0  0  0  0
    9.9292    3.1708    0.0000 C   0  0  0  0  0  0  0  0  0  0  0  0
    9.5542    3.8208    0.0000 C   0  0  0  0  0  0  0  0  0  0  0  0
  2  4  2  0  0  0  0
  3  1  1  0  0  0  0
  4  5  1  0  0  0  0
  5  1  2  0  0  0  0
  6  1  1  0  0  0  0
  7  3  2  0  0  0  0
  8  6  1  0  0  0  0
  9  4  1  0  0  0  0
 10  3  1  0  0  0  0
 11 17  2  0  0  0  0
 12  6  2  0  0  0  0
 13 19  1  0  0  0  0
 14  7  1  0  0  0  0
 15 10  2  0  0  0  0
 16  8  1  0  0  0  0
 17 16  1  0  0  0  0
 18 15  1  0  0  0  0
 19  9  2  0  0  0  0
 20 15  1  0  0  0  0
 21  9  1  0  0  0  0
 22 11  1  0  0  0  0
 23 25  1  0  0  0  0
 24 17  1  0  0  0  0
 25 21  2  0  0  0  0
 26 27  1  0  0  0  0
 27 24  2  0  0  0  0
  7  2  1  0  0  0  0
 18 14  2  0  0  0  0
 13 23  2  0  0  0  0
 26 22  2  0  0  0  0
M  END
> <#>
1543

> <PLATE>
LAT020

> <ROW>
G

> <COL>
4

> <COORD>
G04

> <LATID>
LAT020G04

> <Supplier>
Chembridge

> <Suplier_CAT#>
7923619

> <Name>
Novel

> <Concentration_(mM)>
2.5

> <IC50_(µM)>
inactive

> <Yeast_Active?>
-

> <Pubchem_CID>
1261599

$$$$
