
  -ISIS-  08130814242D

 21 23  0  0  0  0  0  0  0  0999 V2000
   -0.9333    0.7625    0.0000 C   0  0  0  0  0  0  0  0  0  0  0  0
   -0.9333    0.1000    0.0000 C   0  0  0  0  0  0  0  0  0  0  0  0
   -0.3208   -0.2500    0.0000 N   0  0  0  0  0  0  0  0  0  0  0  0
   -0.3208    1.1000    0.0000 C   0  0  0  0  0  0  0  0  0  0  0  0
    0.2792    0.7833    0.0000 N   0  0  3  0  0  0  0  0  0  0  0  0
    0.2792    0.1208    0.0000 C   0  0  0  0  0  0  0  0  0  0  0  0
   -1.5125   -0.2292    0.0000 S   0  0  0  0  0  0  0  0  0  0  0  0
   -2.0958    0.7625    0.0000 C   0  0  0  0  0  0  0  0  0  0  0  0
   -2.0958    0.1000    0.0000 C   0  0  0  0  0  0  0  0  0  0  0  0
    0.9042   -0.1542    0.0000 S   0  0  0  0  0  0  0  0  0  0  0  0
   -0.3208    1.8000    0.0000 O   0  0  0  0  0  0  0  0  0  0  0  0
    2.1292   -0.2167    0.0000 C   0  0  0  0  0  0  0  0  0  0  0  0
    2.1167   -0.9792    0.0000 O   0  0  0  0  0  0  0  0  0  0  0  0
    0.8875    1.1333    0.0000 C   0  0  0  0  0  0  0  0  0  0  0  0
    1.5375    0.1625    0.0000 C   0  0  0  0  0  0  0  0  0  0  0  0
    2.8167    0.0708    0.0000 N   0  0  0  0  0  0  0  0  0  0  0  0
   -2.6708    1.0958    0.0000 C   0  0  0  0  0  0  0  0  0  0  0  0
   -2.6708   -0.2292    0.0000 C   0  0  0  0  0  0  0  0  0  0  0  0
    0.8792    1.8333    0.0000 C   0  0  0  0  0  0  0  0  0  0  0  0
   -3.2500    0.7625    0.0000 C   0  0  0  0  0  0  0  0  0  0  0  0
   -3.2500    0.1000    0.0000 C   0  0  0  0  0  0  0  0  0  0  0  0
  2  1  2  0  0  0  0
  3  2  1  0  0  0  0
  4  1  1  0  0  0  0
  5  4  1  0  0  0  0
  6  5  1  0  0  0  0
  7  2  1  0  0  0  0
  8  1  1  0  0  0  0
  9  8  2  0  0  0  0
 10  6  1  0  0  0  0
 11  4  2  0  0  0  0
 12 15  1  0  0  0  0
 13 12  2  0  0  0  0
 14  5  1  0  0  0  0
 15 10  1  0  0  0  0
 16 12  1  0  0  0  0
 17  8  1  0  0  0  0
 18  9  1  0  0  0  0
 19 14  1  0  0  0  0
 20 17  1  0  0  0  0
 21 20  1  0  0  0  0
  9  7  1  0  0  0  0
  6  3  2  0  0  0  0
 18 21  1  0  0  0  0
M  END
> <#>
905

> <PLATE>
LAT012

> <ROW>
A

> <COL>
5

> <COORD>
A05

> <LATID>
LAT012A05

> <Supplier>
Chembridge

> <Suplier_CAT#>
5684070

> <Name>
Novel

> <Sec_Name>
217_G09

> <Concentration_(mM)>
2.5

> <IC50_(µM)>
82

> <Yeast_Active?>
-

> <Pubchem_CID>
742745

$$$$
