
  -ISIS-  08130814242D

 15 17  0  0  0  0  0  0  0  0999 V2000
   -0.7665   -0.5549    0.0000 C   0  0  0  0  0  0  0  0  0  0  0  0
   -1.7790    0.1781    0.0000 C   0  0  0  0  0  0  0  0  0  0  0  0
   -3.0012   -0.0838    0.0000 C   0  0  0  0  0  0  0  0  0  0  0  0
   -3.8392    0.8438    0.0000 C   0  0  0  0  0  0  0  0  0  0  0  0
   -3.4548    2.0332    0.0000 C   0  0  0  0  0  0  0  0  0  0  0  0
   -2.2326    2.2951    0.0000 C   0  0  0  0  0  0  0  0  0  0  0  0
   -1.3946    1.3676    0.0000 C   0  0  0  0  0  0  0  0  0  0  0  0
   -0.1446    1.3696    0.0000 C   0  0  0  0  0  0  0  0  0  0  0  0
    0.6902    2.2999    0.0000 C   0  0  0  0  0  0  0  0  0  0  0  0
    1.9133    2.0421    0.0000 C   0  0  0  0  0  0  0  0  0  0  0  0
    2.3016    0.8539    0.0000 C   0  0  0  0  0  0  0  0  0  0  0  0
    1.4667   -0.0764    0.0000 C   0  0  0  0  0  0  0  0  0  0  0  0
    0.2436    0.1815    0.0000 C   0  0  0  0  0  0  0  0  0  0  0  0
   -0.7644   -1.8049    0.0000 O   0  0  0  0  0  0  0  0  0  0  0  0
   -5.0614    0.5819    0.0000 O   0  0  0  0  0  0  0  0  0  0  0  0
  1  2  1  0  0  0  0
  2  3  1  0  0  0  0
  3  4  2  0  0  0  0
  4  5  1  0  0  0  0
  5  6  2  0  0  0  0
  6  7  1  0  0  0  0
  2  7  2  0  0  0  0
  7  8  1  0  0  0  0
  8  9  1  0  0  0  0
  9 10  2  0  0  0  0
 10 11  1  0  0  0  0
 11 12  2  0  0  0  0
 12 13  1  0  0  0  0
  8 13  2  0  0  0  0
  1 13  1  0  0  0  0
  1 14  2  0  0  0  0
  4 15  1  0  0  0  0
M  END
> <#>
367

> <PLATE>
LAT005

> <ROW>
G

> <COL>
7

> <COORD>
G07

> <LATID>
LAT005G07

> <Supplier>
Aldrich

> <Suplier_CAT#>
H31328

> <Name>
2-Hydroxy-9-Fluorenone

> <Concentration_(mM)>
2.5

> <IC50_(µM)>
>100

> <Yeast_Active?>
-

> <Pubchem_CID>
81386

$$$$
