
  -ISIS-  08130814242D

 17 19  0  0  0  0  0  0  0  0999 V2000
    2.3417   -1.6042    0.0000 C   0  0  0  0  0  0  0  0  0  0  0  0
    3.0042   -1.6042    0.0000 N   0  0  0  0  0  0  0  0  0  0  0  0
    2.1417   -2.2375    0.0000 N   0  0  3  0  0  0  0  0  0  0  0  0
    3.2042   -2.2375    0.0000 C   0  0  0  0  0  0  0  0  0  0  0  0
    2.6750   -2.6167    0.0000 C   0  0  0  0  0  0  0  0  0  0  0  0
    1.9000   -1.1125    0.0000 C   0  0  0  0  0  0  0  0  0  0  0  0
    1.4917   -2.3750    0.0000 C   0  0  0  0  0  0  0  0  0  0  0  0
    3.8375   -2.4375    0.0000 C   0  0  0  0  0  0  0  0  0  0  0  0
    1.2542   -1.2542    0.0000 C   0  0  0  0  0  0  0  0  0  0  0  0
    1.0500   -1.8792    0.0000 C   0  0  0  0  0  0  0  0  0  0  0  0
    4.3292   -2.0000    0.0000 C   0  0  0  0  0  0  0  0  0  0  0  0
    4.9542   -2.2000    0.0000 C   0  0  0  0  0  0  0  0  0  0  0  0
    5.4500   -1.7542    0.0000 Cl  0  0  0  0  0  0  0  0  0  0  0  0
    3.9750   -3.0917    0.0000 C   0  0  0  0  0  0  0  0  0  0  0  0
    4.6042   -3.2917    0.0000 C   0  0  0  0  0  0  0  0  0  0  0  0
    0.7500   -0.6917    0.0000 C   0  0  0  0  0  0  0  0  0  0  0  0
    5.0917   -2.8500    0.0000 C   0  0  0  0  0  0  0  0  0  0  0  0
  2  1  2  0  0  0  0
  3  1  1  0  0  0  0
  4  2  1  0  0  0  0
  5  3  1  0  0  0  0
  6  1  1  0  0  0  0
  7  3  1  0  0  0  0
  8  4  1  0  0  0  0
  9  6  2  0  0  0  0
 10  9  1  0  0  0  0
 11  8  2  0  0  0  0
 12 11  1  0  0  0  0
 13 12  1  0  0  0  0
 14  8  1  0  0  0  0
 15 14  2  0  0  0  0
 16  9  1  0  0  0  0
 17 15  1  0  0  0  0
  5  4  2  0  0  0  0
 10  7  2  0  0  0  0
 17 12  2  0  0  0  0
M  END
> <#>
916

> <PLATE>
LAT012

> <ROW>
D

> <COL>
6

> <COORD>
D06

> <LATID>
LAT012D06

> <Supplier>
Chembridge

> <Suplier_CAT#>
5691504

> <Name>
Novel

> <Sec_Name>
223_C02

> <Concentration_(mM)>
2.5

> <IC50_(µM)>
61

> <Yeast_Active?>
-

> <Pubchem_CID>
868214

$$$$
