
  -ISIS-  08130814242D

 22 23  0  0  0  0  0  0  0  0999 V2000
    0.0000    0.3708    0.0000 C   0  0  0  0  0  0  0  0  0  0  0  0
   -0.4000    0.9125    0.0000 N   0  0  0  0  0  0  0  0  0  0  0  0
   -0.4000   -0.1875    0.0000 N   0  0  0  0  0  0  0  0  0  0  0  0
   -1.0458    0.7125    0.0000 C   0  0  0  0  0  0  0  0  0  0  0  0
   -1.0458    0.0333    0.0000 C   0  0  0  0  0  0  0  0  0  0  0  0
    2.0375   -0.8042    0.0000 C   0  0  0  0  0  0  0  0  0  0  0  0
    1.7000   -0.2042    0.0000 C   0  0  0  0  0  0  0  0  0  0  0  0
    2.7167   -0.8042    0.0000 S   0  0  0  0  0  0  0  0  0  0  0  0
   -1.6208    1.0500    0.0000 C   0  0  0  0  0  0  0  0  0  0  0  0
    0.6792    0.3708    0.0000 S   0  0  0  0  0  0  0  0  0  0  0  0
    1.8167   -1.4500    0.0000 C   0  0  0  0  0  0  0  0  0  0  0  0
    1.0167   -0.2292    0.0000 C   0  0  0  0  0  0  0  0  0  0  0  0
    2.9167   -1.4500    0.0000 C   0  0  0  0  0  0  0  0  0  0  0  0
    2.0375    0.3708    0.0000 O   0  0  0  0  0  0  0  0  0  0  0  0
    2.3792   -1.8292    0.0000 C   0  0  0  0  0  0  0  0  0  0  0  0
   -1.6208   -0.3292    0.0000 C   0  0  0  0  0  0  0  0  0  0  0  0
   -2.2208    0.7125    0.0000 C   0  0  0  0  0  0  0  0  0  0  0  0
   -2.2208    0.0333    0.0000 C   0  0  0  0  0  0  0  0  0  0  0  0
   -2.8125    1.0458    0.0000 O   0  0  0  0  0  0  0  0  0  0  0  0
   -3.3958    0.7000    0.0000 C   0  0  0  0  0  0  0  0  0  0  0  0
   -3.3958    0.0333    0.0000 C   0  0  0  0  0  0  0  0  0  0  0  0
   -1.7833   -2.0292    0.0000 Br  0  0  0  0  0  0  0  0  0  0  0  0
  2  1  2  0  0  0  0
  3  1  1  0  0  0  0
  4  2  1  0  0  0  0
  5  3  1  0  0  0  0
  6  7  1  0  0  0  0
  7 12  1  0  0  0  0
  8  6  1  0  0  0  0
  9  4  1  0  0  0  0
 10  1  1  0  0  0  0
 11  6  2  0  0  0  0
 12 10  1  0  0  0  0
 13  8  1  0  0  0  0
 14  7  2  0  0  0  0
 15 11  1  0  0  0  0
 16  5  1  0  0  0  0
 17  9  2  0  0  0  0
 18 16  2  0  0  0  0
 19 17  1  0  0  0  0
 20 19  1  0  0  0  0
 21 20  1  0  0  0  0
  5  4  2  0  0  0  0
 18 17  1  0  0  0  0
 13 15  2  0  0  0  0
M  END
> <#>
1786

> <PLATE>
LAT023

> <ROW>
B

> <COL>
5

> <COORD>
B05

> <LATID>
LAT023B05

> <Supplier>
Chembridge

> <Suplier_CAT#>
5557583

> <Name>
Novel

> <Sec_Name>
166_D03

> <Concentration_(mM)>
2.5

> <IC50_(µM)>
10

> <Yeast_Active?>
-

> <Pubchem_CID>
NULL

$$$$
