
  -ISIS-  08130814242D

 27 28  0  0  0  0  0  0  0  0999 V2000
    2.9500   -2.6333    0.0000 C   0  0  0  0  0  0  0  0  0  0  0  0
    2.9500   -3.4583    0.0000 C   0  0  0  0  0  0  0  0  0  0  0  0
    3.6620   -3.8667    0.0000 C   0  0  2  0  0  0  0  0  0  0  0  0
    4.3740   -3.4583    0.0000 C   0  0  1  0  0  0  0  0  0  0  0  0
    4.3740   -2.6333    0.0000 C   0  0  0  0  0  0  0  0  0  0  0  0
    3.6620   -2.2167    0.0000 C   0  0  2  0  0  0  0  0  0  0  0  0
    3.6620   -1.3917    0.0000 O   0  0  0  0  0  0  0  0  0  0  0  0
    5.0879   -3.8719    0.0000 C   0  0  0  0  0  0  0  0  0  0  0  0
    3.6620   -4.6917    0.0000 C   0  0  0  0  0  0  0  0  0  0  0  0
    5.0835   -4.6969    0.0000 C   0  0  0  0  0  0  0  0  0  0  0  0
    5.7966   -5.1104    0.0000 C   0  0  0  0  0  0  0  0  0  0  0  0
    6.5126   -4.6988    0.0000 C   0  0  0  0  0  0  0  0  0  0  0  0
    6.5112   -3.8696    0.0000 C   0  0  0  0  0  0  0  0  0  0  0  0
    5.7975   -3.4599    0.0000 C   0  0  0  0  0  0  0  0  0  0  0  0
    7.2250   -5.1042    0.0000 C   0  0  3  0  0  0  0  0  0  0  0  0
    7.9375   -4.6917    0.0000 C   0  0  0  0  0  0  0  0  0  0  0  0
    8.6500   -5.1000    0.0000 C   0  0  0  0  0  0  0  0  0  0  0  0
    9.3625   -4.6875    0.0000 C   0  0  0  0  0  0  0  0  0  0  0  0
   10.0750   -5.0958    0.0000 C   0  0  0  0  0  0  0  0  0  0  0  0
   10.7875   -4.6833    0.0000 C   0  0  0  0  0  0  0  0  0  0  0  0
   11.5000   -5.0917    0.0000 C   0  0  0  0  0  0  0  0  0  0  0  0
    6.8083   -5.8167    0.0000 C   0  0  0  0  0  0  0  0  0  0  0  0
    7.8083   -5.6875    0.0000 C   0  0  0  0  0  0  0  0  0  0  0  0
    5.7955   -2.6349    0.0000 O   0  0  0  0  0  0  0  0  0  0  0  0
    2.9458   -5.1042    0.0000 C   0  0  0  0  0  0  0  0  0  0  0  0
    2.2333   -4.6917    0.0000 C   0  0  0  0  0  0  0  0  0  0  0  0
    1.5208   -5.1042    0.0000 O   0  0  0  0  0  0  0  0  0  0  0  0
 13 14  2  0  0  0  0
 14  8  1  0  0  0  0
  6  7  1  1  0  0  0
 12 15  1  0  0  0  0
  1  2  1  0  0  0  0
 15 16  1  0  0  0  0
  4  8  1  1  0  0  0
 16 17  1  0  0  0  0
  1  6  1  0  0  0  0
 17 18  1  0  0  0  0
  3  9  1  6  0  0  0
 18 19  1  0  0  0  0
  2  3  1  0  0  0  0
 19 20  1  0  0  0  0
  8 10  2  0  0  0  0
 20 21  1  0  0  0  0
  3  4  1  0  0  0  0
 15 22  1  0  0  0  0
 10 11  1  0  0  0  0
 15 23  1  0  0  0  0
  4  5  1  0  0  0  0
 14 24  1  0  0  0  0
 11 12  2  0  0  0  0
  9 25  1  0  0  0  0
  5  6  1  0  0  0  0
 25 26  1  0  0  0  0
 12 13  1  0  0  0  0
 26 27  1  0  0  0  0
M  END
> <#>
208

> <PLATE>
LAT003

> <ROW>
H

> <COL>
7

> <COORD>
H07

> <LATID>
LAT003H07

> <Supplier>
Sigma

> <Suplier_CAT#>
C 1112

> <Name>
CP55940

> <Concentration_(mM)>
2.5

> <IC50_(µM)>
60

> <Yeast_Active?>
-

> <Pubchem_CID>
104895

> <Description>
Cannabinoid receptor agonist

$$$$
