
  -ISIS-  08130814242D

 22 24  0  0  0  0  0  0  0  0999 V2000
   -1.1333    1.2000    0.0000 C   0  0  0  0  0  0  0  0  0  0  0  0
    1.7667    1.2000    0.0000 C   0  0  0  0  0  0  0  0  0  0  0  0
    2.5292    0.8625    0.0000 O   0  0  0  0  0  0  0  0  0  0  0  0
    1.8500    2.0208    0.0000 C   0  0  0  0  0  0  0  0  0  0  0  0
   -0.4125    0.7833    0.0000 C   0  0  0  0  0  0  0  0  0  0  0  0
    0.3292    1.2000    0.0000 C   0  0  0  0  0  0  0  0  0  0  0  0
    3.0875    1.4833    0.0000 C   0  0  0  0  0  0  0  0  0  0  0  0
    2.6667    2.2083    0.0000 C   0  0  0  0  0  0  0  0  0  0  0  0
    1.0500    0.7833    0.0000 C   0  0  0  0  0  0  0  0  0  0  0  0
   -1.1333    2.0458    0.0000 C   0  0  0  0  0  0  0  0  0  0  0  0
   -1.8500    0.7833    0.0000 C   0  0  0  0  0  0  0  0  0  0  0  0
   -0.4125   -0.0542    0.0000 O   0  0  0  0  0  0  0  0  0  0  0  0
   -1.8500    2.4625    0.0000 C   0  0  0  0  0  0  0  0  0  0  0  0
   -2.5958    1.2000    0.0000 C   0  0  0  0  0  0  0  0  0  0  0  0
   -2.5708    2.0458    0.0000 C   0  0  0  0  0  0  0  0  0  0  0  0
   -0.3958    2.4833    0.0000 O   0  0  0  0  0  0  0  0  0  0  0  0
   -3.3333    0.7833    0.0000 O   0  0  0  0  0  0  0  0  0  0  0  0
    3.9292    1.5000    0.0000 C   0  0  0  0  0  0  0  0  0  0  0  0
    3.0875    2.9458    0.0000 C   0  0  0  0  0  0  0  0  0  0  0  0
   -4.0500    1.2208    0.0000 C   0  0  0  0  0  0  0  0  0  0  0  0
    3.9292    2.9458    0.0000 C   0  0  0  0  0  0  0  0  0  0  0  0
    4.3500    2.2208    0.0000 C   0  0  0  0  0  0  0  0  0  0  0  0
  2  9  1  0  0  0  0
  3  2  1  0  0  0  0
  4  2  2  0  0  0  0
  5  1  1  0  0  0  0
  6  5  1  0  0  0  0
  7  3  1  0  0  0  0
  8  4  1  0  0  0  0
  9  6  2  0  0  0  0
 10  1  2  0  0  0  0
 11  1  1  0  0  0  0
 12  5  2  0  0  0  0
 13 10  1  0  0  0  0
 14 11  2  0  0  0  0
 15 14  1  0  0  0  0
 16 10  1  0  0  0  0
 17 14  1  0  0  0  0
 18  7  1  0  0  0  0
 19  8  1  0  0  0  0
 20 17  1  0  0  0  0
 21 19  2  0  0  0  0
 22 18  2  0  0  0  0
 13 15  2  0  0  0  0
  8  7  2  0  0  0  0
 22 21  1  0  0  0  0
M  END
> <#>
1290

> <PLATE>
LAT017

> <ROW>
B

> <COL>
3

> <COORD>
B03

> <LATID>
LAT017B03

> <Supplier>
Chembridge

> <Suplier_CAT#>
6874376

> <Name>
Novel

> <Concentration_(mM)>
2.5

> <IC50_(µM)>
inactive

> <Yeast_Active?>
-

> <Pubchem_CID>
2916880

$$$$
