
  -ISIS-  08130814242D

 30 33  0  0  0  0  0  0  0  0999 V2000
   -2.3000    0.1125    0.0000 N   0  0  3  0  0  0  0  0  0  0  0  0
   -1.7500    0.9333    0.0000 C   0  0  0  0  0  0  0  0  0  0  0  0
   -1.6708   -0.6500    0.0000 C   0  0  0  0  0  0  0  0  0  0  0  0
   -3.3000    0.1125    0.0000 C   0  0  0  0  0  0  0  0  0  0  0  0
   -3.7958   -0.7500    0.0000 C   0  0  0  0  0  0  0  0  0  0  0  0
   -0.7500   -0.3000    0.0000 C   0  0  3  0  0  0  0  0  0  0  0  0
   -0.8125    0.6625    0.0000 C   0  0  0  0  0  0  0  0  0  0  0  0
   -3.3000   -1.6042    0.0000 C   0  0  3  0  0  0  0  0  0  0  0  0
    3.5042    1.1000    0.0000 N   0  0  3  0  0  0  0  0  0  0  0  0
    0.0792   -0.8167    0.0000 N   0  0  0  0  0  0  0  0  0  0  0  0
   -2.0833    1.8625    0.0000 O   0  0  0  0  0  0  0  0  0  0  0  0
    2.6542    0.6125    0.0000 C   0  0  0  0  0  0  0  0  0  0  0  0
   -1.9208   -1.6292    0.0000 O   0  0  0  0  0  0  0  0  0  0  0  0
   -4.0333   -2.1167    0.0000 F   0  0  0  0  0  0  0  0  0  0  0  0
   -2.5833   -1.1000    0.0000 F   0  0  0  0  0  0  0  0  0  0  0  0
   -2.7833   -2.5042    0.0000 F   0  0  0  0  0  0  0  0  0  0  0  0
    5.2292    2.1000    0.0000 O   0  0  0  0  0  0  0  0  0  0  0  0
    2.6542   -0.3667    0.0000 C   0  0  0  0  0  0  0  0  0  0  0  0
    1.8292    1.1125    0.0000 C   0  0  0  0  0  0  0  0  0  0  0  0
    0.9500   -0.3500    0.0000 C   0  0  0  0  0  0  0  0  0  0  0  0
   -4.7708   -0.7500    0.0000 C   0  0  0  0  0  0  0  0  0  0  0  0
   -3.7958    0.9708    0.0000 C   0  0  0  0  0  0  0  0  0  0  0  0
    0.9500    0.6458    0.0000 C   0  0  0  0  0  0  0  0  0  0  0  0
    1.8000   -0.8667    0.0000 C   0  0  0  0  0  0  0  0  0  0  0  0
    4.3667    0.6125    0.0000 C   0  0  0  0  0  0  0  0  0  0  0  0
    3.5042    2.0833    0.0000 C   0  0  0  0  0  0  0  0  0  0  0  0
    4.3667    2.5958    0.0000 C   0  0  0  0  0  0  0  0  0  0  0  0
    5.2292    1.1125    0.0000 C   0  0  0  0  0  0  0  0  0  0  0  0
   -5.2708    0.1125    0.0000 C   0  0  0  0  0  0  0  0  0  0  0  0
   -4.7958    0.9708    0.0000 C   0  0  0  0  0  0  0  0  0  0  0  0
  2  1  1  0  0  0  0
  3  1  1  0  0  0  0
  4  1  1  0  0  0  0
  5  4  2  0  0  0  0
  6  3  1  0  0  0  0
  7  2  1  0  0  0  0
  8  5  1  0  0  0  0
  9 12  1  0  0  0  0
 10  6  1  0  0  0  0
 11  2  2  0  0  0  0
 12 18  1  0  0  0  0
 13  3  2  0  0  0  0
 14  8  1  0  0  0  0
 15  8  1  0  0  0  0
 16  8  1  0  0  0  0
 17 27  1  0  0  0  0
 18 24  2  0  0  0  0
 19 23  1  0  0  0  0
 20 10  1  0  0  0  0
 21  5  1  0  0  0  0
 22  4  1  0  0  0  0
 23 20  2  0  0  0  0
 24 20  1  0  0  0  0
 25  9  1  0  0  0  0
 26  9  1  0  0  0  0
 27 26  1  0  0  0  0
 28 25  1  0  0  0  0
 29 30  1  0  0  0  0
 30 22  2  0  0  0  0
  6  7  1  0  0  0  0
 21 29  2  0  0  0  0
 19 12  2  0  0  0  0
 17 28  1  0  0  0  0
M  END
> <#>
783

> <PLATE>
LAT010

> <ROW>
G

> <COL>
9

> <COORD>
G09

> <LATID>
LAT010G09

> <Supplier>
Chembridge

> <Suplier_CAT#>
5621637

> <Name>
Novel

> <Sec_Name>
188_G05

> <Concentration_(mM)>
2.5

> <IC50_(µM)>
28

> <Yeast_Active?>
-

> <Pubchem_CID>
1083510

$$$$
