
  -ISIS-  08130814242D

 15 16  0  0  0  0  0  0  0  0999 V2000
    3.5958   -4.4917    0.0000 C   0  0  0  0  0  0  0  0  0  0  0  0
    4.1375   -3.5083    0.0000 C   0  0  0  0  0  0  0  0  0  0  0  0
    5.0917   -2.8333    0.0000 C   0  0  3  0  0  0  0  0  0  0  0  0
    4.7458   -3.9083    0.0000 C   0  0  3  0  0  0  0  0  0  0  0  0
    4.8500   -1.6125    0.0000 O   0  0  0  0  0  0  0  0  0  0  0  0
    6.2792   -3.5292    0.0000 C   0  0  3  0  0  0  0  0  0  0  0  0
    5.8417   -4.4583    0.0000 C   0  0  3  0  0  0  0  0  0  0  0  0
    6.6250   -5.1250    0.0000 C   0  0  0  0  0  0  0  0  0  0  0  0
    6.1458   -5.6000    0.0000 C   0  0  0  0  0  0  0  0  0  0  0  0
    6.9042   -2.9042    0.0000 C   0  0  0  0  0  0  0  0  0  0  0  0
    7.7574   -3.1331    0.0000 O   0  0  0  0  0  0  0  0  0  0  0  0
    6.6749   -2.0505    0.0000 O   0  0  0  0  0  0  0  0  0  0  0  0
    7.2417   -4.2208    0.0000 C   0  0  0  0  0  0  0  0  0  0  0  0
    7.5869   -4.9103    0.0000 O   0  0  0  0  0  0  0  0  0  0  0  0
    7.8667   -3.9083    0.0000 O   0  0  0  0  0  0  0  0  0  0  0  0
  7  4  1  0  0  0  0
  6  8  1  0  0  0  0
  1  2  1  0  0  0  0
  7  9  1  0  0  0  0
  2  3  1  0  0  0  0
  6 10  1  0  0  0  0
  1  4  1  0  0  0  0
  4  5  1  0  0  0  0
 10 11  1  0  0  0  0
 10 12  2  0  0  0  0
  5  3  1  0  0  0  0
  7 13  1  0  0  0  0
  3  6  1  0  0  0  0
 13 14  2  0  0  0  0
  6  7  1  0  0  0  0
 13 15  1  0  0  0  0
M  END
> <#>
216

> <PLATE>
LAT003

> <ROW>
H

> <COL>
8

> <COORD>
H08

> <LATID>
LAT003H08

> <Supplier>
Sigma

> <Suplier_CAT#>
C 8088

> <Name>
Cantharidic Acid

> <Concentration_(mM)>
2.5

> <IC50_(µM)>
0.7

> <Yeast_Active?>
-

> <Pubchem_CID>
2544

> <Description>
Protein phosphatase 1 (PP1) and 2A (PP2A) inhibitor

$$$$
