
  -ISIS-  08130814242D

 19 20  0  0  0  0  0  0  0  0999 V2000
    1.9917   -2.0042    0.0000 C   0  0  0  0  0  0  0  0  0  0  0  0
    1.9917   -2.7542    0.0000 C   0  0  0  0  0  0  0  0  0  0  0  0
    1.3417   -1.6250    0.0000 C   0  0  0  0  0  0  0  0  0  0  0  0
    0.6875   -2.7417    0.0000 C   0  0  3  0  0  0  0  0  0  0  0  0
    2.6417   -1.6250    0.0000 C   0  0  0  0  0  0  0  0  0  0  0  0
    1.3375   -3.1250    0.0000 C   0  0  0  0  0  0  0  0  0  0  0  0
    0.6917   -1.9917    0.0000 C   0  0  0  0  0  0  0  0  0  0  0  0
    2.6375   -3.1292    0.0000 O   0  0  0  0  0  0  0  0  0  0  0  0
    1.3417   -0.8750    0.0000 O   0  0  0  0  0  0  0  0  0  0  0  0
    4.5750   -2.7417    0.0000 N   0  0  0  0  0  0  0  0  0  0  0  0
    3.2875   -2.0000    0.0000 N   0  0  0  0  0  0  0  0  0  0  0  0
    4.5792   -2.0000    0.0000 C   0  0  0  0  0  0  0  0  0  0  0  0
    3.9292   -1.6250    0.0000 C   0  0  0  0  0  0  0  0  0  0  0  0
   -0.0625   -2.7417    0.0000 C   0  0  0  0  0  0  0  0  0  0  0  0
    0.4917   -3.4667    0.0000 C   0  0  0  0  0  0  0  0  0  0  0  0
    5.2167   -3.1167    0.0000 C   0  0  0  0  0  0  0  0  0  0  0  0
    5.2250   -1.6250    0.0000 C   0  0  0  0  0  0  0  0  0  0  0  0
    5.8667   -2.7500    0.0000 C   0  0  0  0  0  0  0  0  0  0  0  0
    5.8667   -2.0000    0.0000 C   0  0  0  0  0  0  0  0  0  0  0  0
  2  1  1  0  0  0  0
  3  1  1  0  0  0  0
  4  7  1  0  0  0  0
  5  1  2  0  0  0  0
  6  2  1  0  0  0  0
  7  3  1  0  0  0  0
  8  2  2  0  0  0  0
  9  3  2  0  0  0  0
 10 12  1  0  0  0  0
 11  5  1  0  0  0  0
 12 13  1  0  0  0  0
 13 11  1  0  0  0  0
 14  4  1  0  0  0  0
 15  4  1  0  0  0  0
 16 10  2  0  0  0  0
 17 12  2  0  0  0  0
 18 19  2  0  0  0  0
 19 17  1  0  0  0  0
  6  4  1  0  0  0  0
 18 16  1  0  0  0  0
M  END
> <#>
1404

> <PLATE>
LAT018

> <ROW>
D

> <COL>
7

> <COORD>
D07

> <LATID>
LAT018D07

> <Supplier>
Chembridge

> <Suplier_CAT#>
5493194

> <Name>
Novel

> <Sec_Name>
144_D05

> <Concentration_(mM)>
2.5

> <IC50_(µM)>
>100

> <Yeast_Active?>
-

> <Pubchem_CID>
747673

$$$$
