
  -ISIS-  08130814242D

 25 27  0  0  0  0  0  0  0  0999 V2000
    4.9167    3.1125    0.0000 N   0  3  0  0  0  0  0  0  0  0  0  0
    4.2042    2.8833    0.0000 C   0  0  0  0  0  0  0  0  0  0  0  0
    4.2042    2.1333    0.0000 C   0  0  0  0  0  0  0  0  0  0  0  0
    5.3542    2.5083    0.0000 N   0  0  3  0  0  0  0  0  0  0  0  0
    4.9167    1.9000    0.0000 N   0  0  0  0  0  0  0  0  0  0  0  0
    3.6000    1.6958    0.0000 N   0  3  0  0  0  0  0  0  0  0  0  0
    3.6000    3.3208    0.0000 N   0  0  0  0  0  0  0  0  0  0  0  0
    5.1500    3.8333    0.0000 O   0  5  0  0  0  0  0  0  0  0  0  0
    6.1042    2.5083    0.0000 C   0  0  0  0  0  0  0  0  0  0  0  0
    3.6750    0.9458    0.0000 O   0  5  0  0  0  0  0  0  0  0  0  0
    2.9125    1.9958    0.0000 O   0  0  0  0  0  0  0  0  0  0  0  0
    2.3792    4.2000    0.0000 N   0  0  0  0  0  0  0  0  0  0  0  0
    6.4792    1.8583    0.0000 C   0  0  0  0  0  0  0  0  0  0  0  0
    6.4792    3.1583    0.0000 C   0  0  0  0  0  0  0  0  0  0  0  0
    2.9125    3.0208    0.0000 C   0  0  0  0  0  0  0  0  0  0  0  0
    2.3042    3.4583    0.0000 C   0  0  0  0  0  0  0  0  0  0  0  0
    7.6042    2.5083    0.0000 C   0  0  0  0  0  0  0  0  0  0  0  0
    7.2292    1.8583    0.0000 C   0  0  0  0  0  0  0  0  0  0  0  0
    7.2292    3.1583    0.0000 C   0  0  0  0  0  0  0  0  0  0  0  0
    8.3542    2.5083    0.0000 O   0  0  0  0  0  0  0  0  0  0  0  0
    1.7792    4.6417    0.0000 C   0  0  0  0  0  0  0  0  0  0  0  0
    1.6167    3.1583    0.0000 C   0  0  0  0  0  0  0  0  0  0  0  0
    8.7292    3.1583    0.0000 C   0  0  0  0  0  0  0  0  0  0  0  0
    1.0917    4.3292    0.0000 C   0  0  0  0  0  0  0  0  0  0  0  0
    1.0167    3.5958    0.0000 C   0  0  0  0  0  0  0  0  0  0  0  0
  2  1  2  0  0  0  0
  3  2  1  0  0  0  0
  4  1  1  0  0  0  0
  5  4  1  0  0  0  0
  6  3  1  0  0  0  0
  7  2  1  0  0  0  0
  8  1  1  0  0  0  0
  9  4  1  0  0  0  0
 10  6  1  0  0  0  0
 11  6  2  0  0  0  0
 12 16  2  0  0  0  0
 13  9  1  0  0  0  0
 14  9  2  0  0  0  0
 15  7  1  0  0  0  0
 16 15  1  0  0  0  0
 17 19  2  0  0  0  0
 18 13  2  0  0  0  0
 19 14  1  0  0  0  0
 20 17  1  0  0  0  0
 21 12  1  0  0  0  0
 22 16  1  0  0  0  0
 23 20  1  0  0  0  0
 24 25  1  0  0  0  0
 25 22  2  0  0  0  0
  5  3  2  0  0  0  0
 17 18  1  0  0  0  0
 24 21  2  0  0  0  0
M  CHG  4   1   1   6   1   8  -1  10  -1
M  END
> <#>
1483

> <PLATE>
LAT019

> <ROW>
C

> <COL>
7

> <COORD>
C07

> <LATID>
LAT019C07

> <Supplier>
Chembridge

> <Suplier_CAT#>
7961352

> <Name>
Novel

> <Concentration_(mM)>
2.5

> <IC50_(µM)>
68

> <Yeast_Active?>
-

> <Pubchem_CID>
NULL

$$$$
