
  -ISIS-  08130814242D

 21 22  0  0  0  0  0  0  0  0999 V2000
    8.0250    5.1542    0.0000 C   0  0  3  0  0  0  0  0  0  0  0  0
   10.0292    1.6625    0.0000 C   0  0  0  0  0  0  0  0  0  0  0  0
    2.0667   -5.2167    0.0000 C   0  0  0  0  0  0  0  0  0  0  0  0
    8.0625   -1.8000    0.0000 C   0  0  0  0  0  0  0  0  0  0  0  0
    4.0750   -1.7792    0.0000 N   0  0  0  0  0  0  0  0  0  0  0  0
   -1.9250   -5.2167    0.0000 N   0  0  0  0  0  0  0  0  0  0  0  0
  -10.0292    1.6083    0.0000 N   0  0  0  0  0  0  0  0  0  0  0  0
    4.1167   -8.6417    0.0000 O   0  0  0  0  0  0  0  0  0  0  0  0
    6.0167    8.6417    0.0000 F   0  0  0  0  0  0  0  0  0  0  0  0
   11.5417    7.1542    0.0000 F   0  0  0  0  0  0  0  0  0  0  0  0
    4.5417    3.1208    0.0000 F   0  0  0  0  0  0  0  0  0  0  0  0
   -7.9375   -1.8167    0.0000 C   0  0  0  0  0  0  0  0  0  0  0  0
   -3.9458   -1.7917    0.0000 C   0  0  0  0  0  0  0  0  0  0  0  0
   13.9917    1.6625    0.0000 C   0  0  0  0  0  0  0  0  0  0  0  0
   10.0042   -5.2417    0.0000 C   0  0  0  0  0  0  0  0  0  0  0  0
  -14.0250    1.5375    0.0000 C   0  0  0  0  0  0  0  0  0  0  0  0
   -9.9042   -5.2667    0.0000 C   0  0  0  0  0  0  0  0  0  0  0  0
   16.0000   -1.7375    0.0000 C   0  0  0  0  0  0  0  0  0  0  0  0
   14.0292   -5.2542    0.0000 C   0  0  0  0  0  0  0  0  0  0  0  0
  -16.0000   -1.9417    0.0000 C   0  0  0  0  0  0  0  0  0  0  0  0
  -13.9042   -5.3417    0.0000 C   0  0  0  0  0  0  0  0  0  0  0  0
  2  1  1  0  0  0  0
  3  5  1  0  0  0  0
  4  2  1  0  0  0  0
  5  4  1  0  0  0  0
  6  3  1  0  0  0  0
  7 12  2  0  0  0  0
  8  3  2  0  0  0  0
  9  1  1  0  0  0  0
 10  1  1  0  0  0  0
 11  1  1  0  0  0  0
 12 13  1  0  0  0  0
 13  6  1  0  0  0  0
 14  2  2  0  0  0  0
 15  4  2  0  0  0  0
 16  7  1  0  0  0  0
 17 12  1  0  0  0  0
 18 14  1  0  0  0  0
 19 18  2  0  0  0  0
 20 21  1  0  0  0  0
 21 17  2  0  0  0  0
 19 15  1  0  0  0  0
 20 16  2  0  0  0  0
M  END
> <#>
1434

> <PLATE>
LAT018

> <ROW>
B

> <COL>
11

> <COORD>
B11

> <LATID>
LAT018B11

> <Supplier>
Chembridge

> <Suplier_CAT#>
7828853

> <Name>
Novel

> <Concentration_(mM)>
2.5

> <IC50_(µM)>
>100

> <Yeast_Active?>
-

> <Pubchem_CID>
971723

$$$$
