
  -ISIS-  08130814242D

 23 26  0  0  0  0  0  0  0  0999 V2000
    1.5292   -3.1125    0.0000 N   0  0  3  0  0  0  0  0  0  0  0  0
    0.8500   -2.7167    0.0000 C   0  0  3  0  0  0  0  0  0  0  0  0
    2.2417   -2.7000    0.0000 C   0  0  0  0  0  0  0  0  0  0  0  0
    0.8542   -1.8917    0.0000 C   0  0  0  0  0  0  0  0  0  0  0  0
    3.6292   -4.2542    0.0000 C   0  0  0  0  0  0  0  0  0  0  0  0
    2.9625   -3.1125    0.0000 C   0  0  0  0  0  0  0  0  0  0  0  0
    2.9625   -3.8667    0.0000 C   0  0  0  0  0  0  0  0  0  0  0  0
    0.1375   -0.6625    0.0000 N   0  0  0  0  0  0  0  0  0  0  0  0
    4.3000   -3.8917    0.0000 C   0  0  0  0  0  0  0  0  0  0  0  0
    4.3000   -3.1125    0.0000 C   0  0  0  0  0  0  0  0  0  0  0  0
    3.6292   -2.7167    0.0000 C   0  0  0  0  0  0  0  0  0  0  0  0
    1.5292   -3.9042    0.0000 C   0  0  0  0  0  0  0  0  0  0  0  0
    0.1417   -1.4875    0.0000 C   0  0  0  0  0  0  0  0  0  0  0  0
    0.1667   -3.1125    0.0000 C   0  0  0  0  0  0  0  0  0  0  0  0
    1.5667   -1.4792    0.0000 C   0  0  0  0  0  0  0  0  0  0  0  0
    0.8542   -0.2417    0.0000 C   0  0  0  0  0  0  0  0  0  0  0  0
    3.6292   -5.0417    0.0000 C   0  0  0  0  0  0  0  0  0  0  0  0
    4.9667   -4.2542    0.0000 C   0  0  0  0  0  0  0  0  0  0  0  0
    0.8500   -4.3042    0.0000 C   0  0  0  0  0  0  0  0  0  0  0  0
    1.5667   -0.6542    0.0000 C   0  0  0  0  0  0  0  0  0  0  0  0
    0.1667   -3.9042    0.0000 C   0  0  0  0  0  0  0  0  0  0  0  0
    4.2792   -5.4292    0.0000 C   0  0  0  0  0  0  0  0  0  0  0  0
    4.9667   -5.0417    0.0000 C   0  0  0  0  0  0  0  0  0  0  0  0
  2  1  1  0  0  0  0
  3  1  1  0  0  0  0
  4  2  1  0  0  0  0
  5  7  1  0  0  0  0
  6  3  1  0  0  0  0
  7  6  2  0  0  0  0
  8 13  2  0  0  0  0
  9 10  1  0  0  0  0
 10 11  2  0  0  0  0
 11  6  1  0  0  0  0
 12  1  1  0  0  0  0
 13  4  1  0  0  0  0
 14  2  1  0  0  0  0
 15  4  2  0  0  0  0
 16 20  2  0  0  0  0
 17  5  1  0  0  0  0
 18  9  1  0  0  0  0
 19 12  1  0  0  0  0
 20 15  1  0  0  0  0
 21 19  1  0  0  0  0
 22 17  2  0  0  0  0
 23 18  2  0  0  0  0
 14 21  1  0  0  0  0
  9  5  2  0  0  0  0
  8 16  1  0  0  0  0
 22 23  1  0  0  0  0
M  END
> <#>
1815

> <PLATE>
LAT023

> <ROW>
G

> <COL>
8

> <COORD>
G08

> <LATID>
LAT023G08

> <Supplier>
Chembridge

> <Suplier_CAT#>
5639027

> <Name>
Novel

> <Sec_Name>
195_D06

> <Concentration_(mM)>
2.5

> <IC50_(µM)>
25

> <Yeast_Active?>
-

> <Pubchem_CID>
2254076

$$$$
