
  -ISIS-  08130814242D

 30 32  0  0  0  0  0  0  0  0999 V2000
    1.8000   -5.2042    0.0000 N   0  3  0  0  0  0  0  0  0  0  0  0
    5.3792   -2.3000    0.0000 C   0  0  0  0  0  0  0  0  0  0  0  0
    9.6792   -2.2917    0.0000 C   0  0  0  0  0  0  0  0  0  0  0  0
    8.2417   -2.2917    0.0000 C   0  0  0  0  0  0  0  0  0  0  0  0
    8.9667   -2.7042    0.0000 C   0  0  0  0  0  0  0  0  0  0  0  0
    2.5167   -4.7875    0.0000 C   0  0  0  0  0  0  0  0  0  0  0  0
    1.0792   -4.7917    0.0000 O   0  5  0  0  0  0  0  0  0  0  0  0
    7.5292   -2.7125    0.0000 C   0  0  0  0  0  0  0  0  0  0  0  0
    1.8042   -6.0292    0.0000 O   0  0  0  0  0  0  0  0  0  0  0  0
    5.3792   -1.4750    0.0000 C   0  0  0  0  0  0  0  0  0  0  0  0
    6.0917   -2.7125    0.0000 C   0  0  0  0  0  0  0  0  0  0  0  0
   10.3917   -2.7042    0.0000 C   0  0  0  0  0  0  0  0  0  0  0  0
    4.6625   -2.7167    0.0000 C   0  0  0  0  0  0  0  0  0  0  0  0
    8.9750   -3.5292    0.0000 O   0  0  0  0  0  0  0  0  0  0  0  0
    6.8125   -2.3000    0.0000 C   0  0  0  0  0  0  0  0  0  0  0  0
    3.2375   -5.2000    0.0000 C   0  0  0  0  0  0  0  0  0  0  0  0
    2.5167   -3.9542    0.0000 C   0  0  0  0  0  0  0  0  0  0  0  0
    6.0917   -1.0625    0.0000 C   0  0  0  0  0  0  0  0  0  0  0  0
    4.6625   -3.5417    0.0000 O   0  0  0  0  0  0  0  0  0  0  0  0
    3.9500   -3.9542    0.0000 C   0  0  0  0  0  0  0  0  0  0  0  0
    6.8125   -1.4750    0.0000 C   0  0  0  0  0  0  0  0  0  0  0  0
    3.2375   -3.5417    0.0000 C   0  0  0  0  0  0  0  0  0  0  0  0
    3.9500   -4.7875    0.0000 C   0  0  0  0  0  0  0  0  0  0  0  0
   10.3917   -3.5292    0.0000 O   0  0  0  0  0  0  0  0  0  0  0  0
    4.6625   -1.0500    0.0000 O   0  0  0  0  0  0  0  0  0  0  0  0
    9.6792   -1.4625    0.0000 C   0  0  0  0  0  0  0  0  0  0  0  0
   11.1125   -2.2917    0.0000 C   0  0  0  0  0  0  0  0  0  0  0  0
    4.6667   -0.2167    0.0000 C   0  0  0  0  0  0  0  0  0  0  0  0
   10.3917   -1.0500    0.0000 C   0  0  0  0  0  0  0  0  0  0  0  0
   11.1125   -1.4625    0.0000 C   0  0  0  0  0  0  0  0  0  0  0  0
  2 13  1  0  0  0  0
  3  5  1  0  0  0  0
  4  8  2  0  0  0  0
  5  4  1  0  0  0  0
  6  1  1  0  0  0  0
  7  1  1  0  0  0  0
  8 15  1  0  0  0  0
  9  1  2  0  0  0  0
 10  2  1  0  0  0  0
 11  2  2  0  0  0  0
 12  3  2  0  0  0  0
 13 19  1  0  0  0  0
 14  5  2  0  0  0  0
 15 11  1  0  0  0  0
 16  6  2  0  0  0  0
 17  6  1  0  0  0  0
 18 10  2  0  0  0  0
 19 20  1  0  0  0  0
 20 22  1  0  0  0  0
 21 15  2  0  0  0  0
 22 17  2  0  0  0  0
 23 16  1  0  0  0  0
 24 12  1  0  0  0  0
 25 10  1  0  0  0  0
 26  3  1  0  0  0  0
 27 12  1  0  0  0  0
 28 25  1  0  0  0  0
 29 26  2  0  0  0  0
 30 29  1  0  0  0  0
 20 23  2  0  0  0  0
 21 18  1  0  0  0  0
 30 27  2  0  0  0  0
M  CHG  2   1   1   7  -1
M  END
> <#>
1335

> <PLATE>
LAT017

> <ROW>
G

> <COL>
8

> <COORD>
G08

> <LATID>
LAT017G08

> <Supplier>
Chembridge

> <Suplier_CAT#>
7234703

> <Name>
Novel

> <Concentration_(mM)>
2.5

> <IC50_(µM)>
>100

> <Yeast_Active?>
-

> <Pubchem_CID>
2931258

$$$$
