
  -ISIS-  08130814242D

 31 35  0  0  0  0  0  0  0  0999 V2000
    5.1667    3.3958    0.0000 N   0  0  3  0  0  0  0  0  0  0  0  0
    4.7917    2.7375    0.0000 C   0  0  0  0  0  0  0  0  0  0  0  0
    4.6667    3.9458    0.0000 N   0  0  0  0  0  0  0  0  0  0  0  0
    3.9792    3.6458    0.0000 C   0  0  0  0  0  0  0  0  0  0  0  0
    4.0542    2.8958    0.0000 C   0  0  0  0  0  0  0  0  0  0  0  0
    5.9167    3.3958    0.0000 C   0  0  0  0  0  0  0  0  0  0  0  0
    5.1667    2.0958    0.0000 N   0  0  0  0  0  0  0  0  0  0  0  0
    6.2917    2.7375    0.0000 C   0  0  0  0  0  0  0  0  0  0  0  0
    5.9167    2.0958    0.0000 C   0  0  0  0  0  0  0  0  0  0  0  0
    3.3292    4.0125    0.0000 C   0  0  0  0  0  0  0  0  0  0  0  0
    2.6792    3.6458    0.0000 N   0  0  0  0  0  0  0  0  0  0  0  0
    6.2917    4.0292    0.0000 C   0  0  0  0  0  0  0  0  0  0  0  0
    6.2917    1.4458    0.0000 C   0  0  0  0  0  0  0  0  0  0  0  0
    0.7292    4.0125    0.0000 N   0  0  0  0  0  0  0  0  0  0  0  0
    3.3292    4.7625    0.0000 O   0  0  0  0  0  0  0  0  0  0  0  0
    2.0292    4.0125    0.0000 C   0  0  0  0  0  0  0  0  0  0  0  0
    1.3792    3.6458    0.0000 C   0  0  0  0  0  0  0  0  0  0  0  0
    0.0792    3.6458    0.0000 C   0  0  0  0  0  0  0  0  0  0  0  0
    7.0417    4.0292    0.0000 C   0  0  0  0  0  0  0  0  0  0  0  0
    5.9167    4.6792    0.0000 C   0  0  0  0  0  0  0  0  0  0  0  0
    5.9167    0.7958    0.0000 C   0  0  0  0  0  0  0  0  0  0  0  0
    7.0417    1.4458    0.0000 C   0  0  0  0  0  0  0  0  0  0  0  0
    1.3792    2.8958    0.0000 C   0  0  0  0  0  0  0  0  0  0  0  0
    0.0792    2.8958    0.0000 C   0  0  0  0  0  0  0  0  0  0  0  0
    7.4167    0.7958    0.0000 C   0  0  0  0  0  0  0  0  0  0  0  0
    6.2917    0.1458    0.0000 C   0  0  0  0  0  0  0  0  0  0  0  0
    6.2917    5.3292    0.0000 C   0  0  0  0  0  0  0  0  0  0  0  0
    7.4167    4.6792    0.0000 C   0  0  0  0  0  0  0  0  0  0  0  0
    0.7292    2.5208    0.0000 C   0  0  0  0  0  0  0  0  0  0  0  0
    7.0417    5.3292    0.0000 C   0  0  0  0  0  0  0  0  0  0  0  0
    7.0417    0.1458    0.0000 C   0  0  0  0  0  0  0  0  0  0  0  0
  2  1  1  0  0  0  0
  3  1  1  0  0  0  0
  4  3  2  0  0  0  0
  5  2  2  0  0  0  0
  6  1  1  0  0  0  0
  7  2  1  0  0  0  0
  8  6  2  0  0  0  0
  9  8  1  0  0  0  0
 10  4  1  0  0  0  0
 11 10  1  0  0  0  0
 12  6  1  0  0  0  0
 13  9  1  0  0  0  0
 14 17  2  0  0  0  0
 15 10  2  0  0  0  0
 16 11  1  0  0  0  0
 17 16  1  0  0  0  0
 18 14  1  0  0  0  0
 19 12  1  0  0  0  0
 20 12  2  0  0  0  0
 21 13  2  0  0  0  0
 22 13  1  0  0  0  0
 23 17  1  0  0  0  0
 24 29  1  0  0  0  0
 25 22  2  0  0  0  0
 26 21  1  0  0  0  0
 27 20  1  0  0  0  0
 28 19  2  0  0  0  0
 29 23  2  0  0  0  0
 30 27  2  0  0  0  0
 31 25  1  0  0  0  0
  4  5  1  0  0  0  0
  9  7  2  0  0  0  0
 30 28  1  0  0  0  0
 31 26  2  0  0  0  0
 24 18  2  0  0  0  0
M  END
> <#>
1588

> <PLATE>
LAT020

> <ROW>
D

> <COL>
10

> <COORD>
D10

> <LATID>
LAT020D10

> <Supplier>
Chembridge

> <Suplier_CAT#>
7989822

> <Name>
Novel

> <Concentration_(mM)>
2.5

> <IC50_(µM)>
>100

> <Yeast_Active?>
-

> <Pubchem_CID>
1259171

$$$$
