
  -ISIS-  08130814242D

 20 21  0  0  0  0  0  0  0  0999 V2000
   -2.5500    1.8458    0.0000 C   0  0  0  0  0  0  0  0  0  0  0  0
    0.3042    1.8458    0.0000 C   0  0  0  0  0  0  0  0  0  0  0  0
   -2.5500    1.0000    0.0000 C   0  0  0  0  0  0  0  0  0  0  0  0
    0.3042    1.0208    0.0000 N   0  0  3  0  0  0  0  0  0  0  0  0
   -3.2708    0.6000    0.0000 C   0  0  0  0  0  0  0  0  0  0  0  0
   -0.4125    2.2708    0.0000 S   0  0  0  0  0  0  0  0  0  0  0  0
   -1.8333    2.2708    0.0000 C   0  0  0  0  0  0  0  0  0  0  0  0
   -3.9958    1.0000    0.0000 C   0  0  0  0  0  0  0  0  0  0  0  0
   -3.2708    2.2458    0.0000 C   0  0  0  0  0  0  0  0  0  0  0  0
    1.0500    2.2708    0.0000 S   0  0  0  0  0  0  0  0  0  0  0  0
   -3.9958    1.8458    0.0000 C   0  0  0  0  0  0  0  0  0  0  0  0
   -1.1333    1.8625    0.0000 C   0  0  0  0  0  0  0  0  0  0  0  0
   -1.8500    3.1083    0.0000 O   0  0  0  0  0  0  0  0  0  0  0  0
   -3.2708   -0.2375    0.0000 Br  0  0  0  0  0  0  0  0  0  0  0  0
   -1.8333    0.5833    0.0000 O   0  0  0  0  0  0  0  0  0  0  0  0
   -4.7208    2.2708    0.0000 Br  0  0  0  0  0  0  0  0  0  0  0  0
    1.0042    0.6000    0.0000 C   0  0  0  0  0  0  0  0  0  0  0  0
   -0.3125    0.4625    0.0000 C   0  0  0  0  0  0  0  0  0  0  0  0
    0.8500   -0.2000    0.0000 C   0  0  0  0  0  0  0  0  0  0  0  0
    0.0500   -0.3000    0.0000 C   0  0  0  0  0  0  0  0  0  0  0  0
  2  6  1  0  0  0  0
  3  1  2  0  0  0  0
  4  2  1  0  0  0  0
  5  3  1  0  0  0  0
  6 12  1  0  0  0  0
  7  1  1  0  0  0  0
  8 11  1  0  0  0  0
  9  1  1  0  0  0  0
 10  2  2  0  0  0  0
 11  9  2  0  0  0  0
 12  7  1  0  0  0  0
 13  7  2  0  0  0  0
 14  5  1  0  0  0  0
 15  3  1  0  0  0  0
 16 11  1  0  0  0  0
 17  4  1  0  0  0  0
 18  4  1  0  0  0  0
 19 17  1  0  0  0  0
 20 18  1  0  0  0  0
  5  8  2  0  0  0  0
 20 19  1  0  0  0  0
M  END
> <#>
1896

> <PLATE>
LAT024

> <ROW>
H

> <COL>
8

> <COORD>
H08

> <LATID>
LAT024H08

> <Supplier>
Chembridge

> <Suplier_CAT#>
5571313

> <Name>
S001 C04

> <Sec_Name>
176_D03

> <Concentration_(mM)>
2.5

> <IC50_(µM)>
inactive

> <Yeast_Active?>
-

> <Pubchem_CID>
1246365

$$$$
