
  -ISIS-  08130814242D

 23 25  0  0  0  0  0  0  0  0999 V2000
    6.0792  -12.2042    0.0000 N   0  0  0  0  0  0  0  0  0  0  0  0
    5.6292  -11.8375    0.0000 C   0  0  0  0  0  0  0  0  0  0  0  0
    5.8500  -11.2917    0.0000 N   0  0  0  0  0  0  0  0  0  0  0  0
    6.5792  -11.9000    0.0000 C   0  0  0  0  0  0  0  0  0  0  0  0
    6.4375  -11.3292    0.0000 N   0  0  0  0  0  0  0  0  0  0  0  0
    8.5917  -11.6125    0.0000 C   0  0  0  0  0  0  0  0  0  0  0  0
    8.5042  -11.0292    0.0000 C   0  0  0  0  0  0  0  0  0  0  0  0
    8.1292  -11.9750    0.0000 C   0  0  0  0  0  0  0  0  0  0  0  0
    8.9667  -10.6667    0.0000 C   0  0  0  0  0  0  0  0  0  0  0  0
    9.1375  -11.8292    0.0000 C   0  0  0  0  0  0  0  0  0  0  0  0
    7.1250  -12.1167    0.0000 S   0  0  0  0  0  0  0  0  0  0  0  0
    5.0667  -11.9792    0.0000 C   0  0  0  0  0  0  0  0  0  0  0  0
    7.5875  -11.7542    0.0000 C   0  0  0  0  0  0  0  0  0  0  0  0
    3.9250  -12.2625    0.0000 N   0  0  0  0  0  0  0  0  0  0  0  0
    8.2125  -12.5542    0.0000 O   0  0  0  0  0  0  0  0  0  0  0  0
    9.5167  -10.8917    0.0000 C   0  0  0  0  0  0  0  0  0  0  0  0
    7.9625  -10.8167    0.0000 O   0  0  0  0  0  0  0  0  0  0  0  0
    9.6000  -11.4667    0.0000 C   0  0  0  0  0  0  0  0  0  0  0  0
    9.9792  -10.5250    0.0000 O   0  0  0  0  0  0  0  0  0  0  0  0
    4.0875  -11.7000    0.0000 C   0  0  0  0  0  0  0  0  0  0  0  0
    4.3375  -12.6875    0.0000 C   0  0  0  0  0  0  0  0  0  0  0  0
    4.6542  -11.5542    0.0000 C   0  0  0  0  0  0  0  0  0  0  0  0
    4.9042  -12.5417    0.0000 C   0  0  0  0  0  0  0  0  0  0  0  0
  2  1  1  0  0  0  0
  3  2  2  0  0  0  0
  4  1  1  0  0  0  0
  5  4  2  0  0  0  0
  6  8  1  0  0  0  0
  7  6  1  0  0  0  0
  8 13  1  0  0  0  0
  9  7  2  0  0  0  0
 10  6  2  0  0  0  0
 11  4  1  0  0  0  0
 12  2  1  0  0  0  0
 13 11  1  0  0  0  0
 14 21  1  0  0  0  0
 15  8  2  0  0  0  0
 16 18  2  0  0  0  0
 17  7  1  0  0  0  0
 18 10  1  0  0  0  0
 19 16  1  0  0  0  0
 20 22  1  0  0  0  0
 21 23  2  0  0  0  0
 22 12  2  0  0  0  0
 23 12  1  0  0  0  0
  5  3  1  0  0  0  0
 20 14  2  0  0  0  0
 16  9  1  0  0  0  0
M  END
> <#>
1302

> <PLATE>
LAT017

> <ROW>
F

> <COL>
4

> <COORD>
F04

> <LATID>
LAT017F04

> <Supplier>
Chembridge

> <Suplier_CAT#>
6599054

> <Name>
Novel

> <Concentration_(mM)>
2.5

> <IC50_(µM)>
>100

> <Yeast_Active?>
-

> <Pubchem_CID>
NULL

$$$$
