
  -ISIS-  08130814242D

 24 25  0  0  0  0  0  0  0  0999 V2000
    7.1786    0.5486    0.0000 C   0  0  0  0  0  0  0  0  0  0  0  0
    6.0273    1.0353    0.0000 C   0  0  0  0  0  0  0  0  0  0  0  0
    5.0301    0.2817    0.0000 C   0  0  3  0  0  0  0  0  0  0  0  0
    5.7838   -0.7156    0.0000 C   0  0  0  0  0  0  0  0  0  0  0  0
    4.2764    1.2789    0.0000 C   0  0  0  0  0  0  0  0  0  0  0  0
    4.7632    2.4302    0.0000 C   0  0  0  0  0  0  0  0  0  0  0  0
    4.0328   -0.4720    0.0000 C   0  0  0  0  0  0  0  0  0  0  0  0
    4.0564   -1.7218    0.0000 N   0  0  0  0  0  0  0  0  0  0  0  0
    2.8751   -2.1304    0.0000 O   0  0  0  0  0  0  0  0  0  0  0  0
    2.1214   -1.1450    0.0000 C   0  0  0  0  0  0  0  0  0  0  0  0
    2.8369   -0.1083    0.0000 C   0  0  0  0  0  0  0  0  0  0  0  0
    0.8716   -1.1450    0.0000 N   0  0  0  0  0  0  0  0  0  0  0  0
    0.2415   -2.2364    0.0000 C   0  0  0  0  0  0  0  0  0  0  0  0
    0.8691   -3.3233    0.0000 O   0  0  0  0  0  0  0  0  0  0  0  0
   -1.0034   -2.2364    0.0000 C   0  0  0  0  0  0  0  0  0  0  0  0
   -1.6284   -3.3219    0.0000 C   0  0  0  0  0  0  0  0  0  0  0  0
   -2.8784   -3.3219    0.0000 C   0  0  0  0  0  0  0  0  0  0  0  0
   -3.5034   -2.2393    0.0000 C   0  0  0  0  0  0  0  0  0  0  0  0
   -2.8784   -1.1568    0.0000 C   0  0  0  0  0  0  0  0  0  0  0  0
   -1.6284   -1.1568    0.0000 C   0  0  0  0  0  0  0  0  0  0  0  0
   -1.0034   -0.0743    0.0000 O   0  0  0  0  0  0  0  0  0  0  0  0
   -1.6284    1.0083    0.0000 C   0  0  0  0  0  0  0  0  0  0  0  0
   -1.0034   -4.4044    0.0000 O   0  0  0  0  0  0  0  0  0  0  0  0
   -1.6284   -5.4869    0.0000 C   0  0  0  0  0  0  0  0  0  0  0  0
  1  2  1  0  0  0  0
  2  3  1  0  0  0  0
  3  4  1  0  0  0  0
  3  5  1  0  0  0  0
  5  6  1  0  0  0  0
  3  7  1  0  0  0  0
  7  8  2  0  0  0  0
  8  9  1  0  0  0  0
  9 10  1  0  0  0  0
 10 11  2  0  0  0  0
  7 11  1  0  0  0  0
 10 12  1  0  0  0  0
 12 13  1  0  0  0  0
 13 14  2  0  0  0  0
 13 15  1  0  0  0  0
 15 16  2  0  0  0  0
 16 17  1  0  0  0  0
 17 18  2  0  0  0  0
 18 19  1  0  0  0  0
 19 20  2  0  0  0  0
 15 20  1  0  0  0  0
 20 21  1  0  0  0  0
 21 22  1  0  0  0  0
 16 23  1  0  0  0  0
 23 24  1  0  0  0  0
M  END
> <#>
541

> <PLATE>
LAT007

> <ROW>
E

> <COL>
9

> <COORD>
E09

> <LATID>
LAT007E09

> <Supplier>
ChemService

> <Suplier_CAT#>
Isoxaben

> <Name>
Isoxaben

> <Concentration_(mM)>
2.5

> <IC50_(µM)>
0.0023

> <Yeast_Active?>
-

> <Pubchem_CID>
73672

$$$$
