
  -ISIS-  08130814242D

 24 25  0  0  0  0  0  0  0  0999 V2000
    3.7667    0.6958    0.0000 N   0  3  0  0  0  0  0  0  0  0  0  0
   -3.3708    1.4833    0.0000 C   0  0  0  0  0  0  0  0  0  0  0  0
   -1.2208    1.9000    0.0000 C   0  0  0  0  0  0  0  0  0  0  0  0
   -2.6500    1.9000    0.0000 O   0  0  0  0  0  0  0  0  0  0  0  0
    3.0542    1.1000    0.0000 C   0  0  0  0  0  0  0  0  0  0  0  0
    0.2000    1.9208    0.0000 N   0  0  0  0  0  0  0  0  0  0  0  0
    3.7792   -0.1167    0.0000 O   0  5  0  0  0  0  0  0  0  0  0  0
    4.4875    1.1000    0.0000 O   0  0  0  0  0  0  0  0  0  0  0  0
   -0.5000    1.5000    0.0000 N   0  0  0  0  0  0  0  0  0  0  0  0
   -1.2333    2.7333    0.0000 O   0  0  0  0  0  0  0  0  0  0  0  0
   -1.9333    1.4958    0.0000 C   0  0  0  0  0  0  0  0  0  0  0  0
   -3.3708    0.6500    0.0000 C   0  0  0  0  0  0  0  0  0  0  0  0
   -4.0833    1.9000    0.0000 C   0  0  0  0  0  0  0  0  0  0  0  0
    3.0500    1.9333    0.0000 C   0  0  0  0  0  0  0  0  0  0  0  0
    2.3500    0.6833    0.0000 C   0  0  0  0  0  0  0  0  0  0  0  0
    0.9042    2.3333    0.0000 C   0  0  0  0  0  0  0  0  0  0  0  0
    1.6167    1.9208    0.0000 C   0  0  0  0  0  0  0  0  0  0  0  0
    1.6167    1.0958    0.0000 C   0  0  0  0  0  0  0  0  0  0  0  0
    2.3375    2.3333    0.0000 C   0  0  0  0  0  0  0  0  0  0  0  0
   -4.7958    0.6500    0.0000 C   0  0  0  0  0  0  0  0  0  0  0  0
   -4.0833    0.2458    0.0000 C   0  0  0  0  0  0  0  0  0  0  0  0
   -4.7958    1.4833    0.0000 C   0  0  0  0  0  0  0  0  0  0  0  0
   -4.0958    2.7208    0.0000 C   0  0  0  0  0  0  0  0  0  0  0  0
   -2.6500    0.2458    0.0000 C   0  0  0  0  0  0  0  0  0  0  0  0
  2  4  1  0  0  0  0
  3  9  1  0  0  0  0
  4 11  1  0  0  0  0
  5  1  1  0  0  0  0
  6 16  2  0  0  0  0
  7  1  1  0  0  0  0
  8  1  2  0  0  0  0
  9  6  1  0  0  0  0
 10  3  2  0  0  0  0
 11  3  1  0  0  0  0
 12  2  1  0  0  0  0
 13  2  2  0  0  0  0
 14  5  1  0  0  0  0
 15  5  2  0  0  0  0
 16 17  1  0  0  0  0
 17 18  2  0  0  0  0
 18 15  1  0  0  0  0
 19 14  2  0  0  0  0
 20 22  2  0  0  0  0
 21 12  2  0  0  0  0
 22 13  1  0  0  0  0
 23 13  1  0  0  0  0
 24 12  1  0  0  0  0
 19 17  1  0  0  0  0
 20 21  1  0  0  0  0
M  CHG  2   1   1   7  -1
M  END
> <#>
2033

> <PLATE>
LAT026

> <ROW>
A

> <COL>
6

> <COORD>
A06

> <LATID>
LAT026A06

> <Supplier>
Chembridge

> <Suplier_CAT#>
5762764

> <Sec_Name>
241_B05

> <Concentration_(mM)>
2.5

> <IC50_(µM)>
inactive

> <Yeast_Active?>
-

> <Pubchem_CID>
869747

$$$$
