
  -ISIS-  08130814242D

 18 19  0  0  0  0  0  0  0  0999 V2000
    0.2375    0.5125    0.0000 C   0  0  0  0  0  0  0  0  0  0  0  0
   -0.5625    0.9708    0.0000 C   0  0  0  0  0  0  0  0  0  0  0  0
    1.0375    0.9708    0.0000 C   0  0  0  0  0  0  0  0  0  0  0  0
   -1.3458    0.5333    0.0000 C   0  0  0  0  0  0  0  0  0  0  0  0
   -0.5625    1.8958    0.0000 O   0  0  0  0  0  0  0  0  0  0  0  0
   -2.1208    0.9708    0.0000 C   0  0  0  0  0  0  0  0  0  0  0  0
   -1.3458   -0.3875    0.0000 C   0  0  0  0  0  0  0  0  0  0  0  0
    1.8375    0.5125    0.0000 C   0  0  0  0  0  0  0  0  0  0  0  0
    3.4000   -0.4042    0.0000 C   0  0  0  0  0  0  0  0  0  0  0  0
   -2.9000   -0.3875    0.0000 C   0  0  0  0  0  0  0  0  0  0  0  0
   -2.1208   -0.8500    0.0000 C   0  0  0  0  0  0  0  0  0  0  0  0
   -2.9000    0.5333    0.0000 C   0  0  0  0  0  0  0  0  0  0  0  0
    4.2542   -0.7792    0.0000 Br  0  0  0  0  0  0  0  0  0  0  0  0
    1.8375   -0.4042    0.0000 C   0  0  0  0  0  0  0  0  0  0  0  0
    2.6167    0.9500    0.0000 C   0  0  0  0  0  0  0  0  0  0  0  0
    2.6167   -0.8667    0.0000 C   0  0  0  0  0  0  0  0  0  0  0  0
    3.4000    0.5125    0.0000 C   0  0  0  0  0  0  0  0  0  0  0  0
   -3.7000   -0.8667    0.0000 O   0  0  0  0  0  0  0  0  0  0  0  0
  2  1  1  0  0  0  0
  3  1  2  0  0  0  0
  4  2  1  0  0  0  0
  5  2  2  0  0  0  0
  6  4  1  0  0  0  0
  7  4  2  0  0  0  0
  8  3  1  0  0  0  0
  9 17  1  0  0  0  0
 10 11  2  0  0  0  0
 11  7  1  0  0  0  0
 12  6  2  0  0  0  0
 13  9  1  0  0  0  0
 14  8  2  0  0  0  0
 15  8  1  0  0  0  0
 16 14  1  0  0  0  0
 17 15  2  0  0  0  0
 18 10  1  0  0  0  0
 16  9  2  0  0  0  0
 10 12  1  0  0  0  0
M  END
> <#>
1245

> <PLATE>
LAT016

> <ROW>
E

> <COL>
7

> <COORD>
E07

> <LATID>
LAT016E07

> <Supplier>
Chembridge

> <Suplier_CAT#>
6148743

> <Name>
Novel

> <Concentration_(mM)>
2.5

> <IC50_(µM)>
>100

> <Yeast_Active?>
+

> <Pubchem_CID>
2888210

$$$$
