
  -ISIS-  08130814242D

 23 26  0  0  0  0  0  0  0  0999 V2000
    3.7375   -5.0750    0.0000 N   0  0  3  0  0  0  0  0  0  0  0  0
    4.3875   -5.4500    0.0000 C   0  0  0  0  0  0  0  0  0  0  0  0
    3.7375   -4.3167    0.0000 C   0  0  0  0  0  0  0  0  0  0  0  0
    2.4417   -5.0750    0.0000 N   0  0  0  0  0  0  0  0  0  0  0  0
    4.3875   -3.9500    0.0000 N   0  0  0  0  0  0  0  0  0  0  0  0
    5.0375   -5.0750    0.0000 C   0  0  0  0  0  0  0  0  0  0  0  0
    3.0875   -3.9500    0.0000 C   0  0  0  0  0  0  0  0  0  0  0  0
    2.4417   -4.3167    0.0000 C   0  0  0  0  0  0  0  0  0  0  0  0
    4.3792   -6.2000    0.0000 C   0  0  3  0  0  0  0  0  0  0  0  0
    5.0375   -4.3167    0.0000 C   0  0  0  0  0  0  0  0  0  0  0  0
    1.7917   -3.9542    0.0000 C   0  0  0  0  0  0  0  0  0  0  0  0
    4.3792   -6.8792    0.0000 F   0  0  0  0  0  0  0  0  0  0  0  0
    3.7750   -6.6917    0.0000 F   0  0  0  0  0  0  0  0  0  0  0  0
    4.9917   -6.6917    0.0000 F   0  0  0  0  0  0  0  0  0  0  0  0
    1.1417   -4.3292    0.0000 C   0  0  0  0  0  0  0  0  0  0  0  0
    1.7917   -3.2042    0.0000 C   0  0  0  0  0  0  0  0  0  0  0  0
    5.7500   -5.3042    0.0000 C   0  0  0  0  0  0  0  0  0  0  0  0
    1.1375   -2.8292    0.0000 C   0  0  0  0  0  0  0  0  0  0  0  0
    0.4917   -3.9542    0.0000 C   0  0  0  0  0  0  0  0  0  0  0  0
    5.7500   -4.0917    0.0000 C   0  0  0  0  0  0  0  0  0  0  0  0
    0.4917   -3.2042    0.0000 C   0  0  0  0  0  0  0  0  0  0  0  0
    6.1917   -4.7000    0.0000 C   0  0  0  0  0  0  0  0  0  0  0  0
   -0.1583   -2.8375    0.0000 C   0  0  0  0  0  0  0  0  0  0  0  0
  2  1  1  0  0  0  0
  3  1  1  0  0  0  0
  4  1  1  0  0  0  0
  5  3  1  0  0  0  0
  6  2  2  0  0  0  0
  7  3  2  0  0  0  0
  8  4  2  0  0  0  0
  9  2  1  0  0  0  0
 10  5  2  0  0  0  0
 11  8  1  0  0  0  0
 12  9  1  0  0  0  0
 13  9  1  0  0  0  0
 14  9  1  0  0  0  0
 15 11  2  0  0  0  0
 16 11  1  0  0  0  0
 17  6  1  0  0  0  0
 18 16  2  0  0  0  0
 19 15  1  0  0  0  0
 20 10  1  0  0  0  0
 21 18  1  0  0  0  0
 22 17  1  0  0  0  0
 23 21  1  0  0  0  0
  7  8  1  0  0  0  0
 10  6  1  0  0  0  0
 22 20  1  0  0  0  0
 21 19  2  0  0  0  0
M  END
> <#>
1091

> <PLATE>
LAT014

> <ROW>
C

> <COL>
8

> <COORD>
C08

> <LATID>
LAT014C08

> <Supplier>
Chembridge

> <Suplier_CAT#>
6547595

> <Name>
Novel

> <Concentration_(mM)>
2.5

> <IC50_(µM)>
inactive

> <Yeast_Active?>
-

> <Pubchem_CID>
2902112

$$$$
