
  -ISIS-  08130814242D

 27 29  0  0  0  0  0  0  0  0999 V2000
    5.9292   -1.3667    0.0000 C   0  0  0  0  0  0  0  0  0  0  0  0
    0.7292   -2.1167    0.0000 C   0  0  0  0  0  0  0  0  0  0  0  0
    6.5792   -1.0000    0.0000 C   0  0  0  0  0  0  0  0  0  0  0  0
    5.2792   -1.0000    0.0000 O   0  0  0  0  0  0  0  0  0  0  0  0
    4.6292   -1.3667    0.0000 C   0  0  0  0  0  0  0  0  0  0  0  0
    7.2542   -1.3000    0.0000 S   0  0  0  0  0  0  0  0  0  0  0  0
    3.9792   -0.9875    0.0000 C   0  0  0  0  0  0  0  0  0  0  0  0
    2.0292   -2.1167    0.0000 N   0  0  0  0  0  0  0  0  0  0  0  0
    0.0792   -2.4875    0.0000 C   0  0  0  0  0  0  0  0  0  0  0  0
    1.3792   -2.4875    0.0000 N   0  0  0  0  0  0  0  0  0  0  0  0
    0.0792   -3.2500    0.0000 N   0  0  0  0  0  0  0  0  0  0  0  0
    6.6542   -0.2500    0.0000 C   0  0  0  0  0  0  0  0  0  0  0  0
    5.9292   -2.1167    0.0000 O   0  0  0  0  0  0  0  0  0  0  0  0
    0.7292   -1.3667    0.0000 O   0  0  0  0  0  0  0  0  0  0  0  0
    7.7667   -0.7500    0.0000 C   0  0  0  0  0  0  0  0  0  0  0  0
    3.3292   -1.3667    0.0000 C   0  0  0  0  0  0  0  0  0  0  0  0
    7.3875   -0.0917    0.0000 C   0  0  0  0  0  0  0  0  0  0  0  0
    4.6292   -2.1167    0.0000 C   0  0  0  0  0  0  0  0  0  0  0  0
    2.6792   -2.4875    0.0000 C   0  0  0  0  0  0  0  0  0  0  0  0
    3.3292   -2.1167    0.0000 C   0  0  0  0  0  0  0  0  0  0  0  0
    3.9792   -2.4875    0.0000 C   0  0  0  0  0  0  0  0  0  0  0  0
    3.9792   -0.2375    0.0000 O   0  0  0  0  0  0  0  0  0  0  0  0
   -0.5625   -3.6167    0.0000 C   0  0  0  0  0  0  0  0  0  0  0  0
   -0.5625   -2.1042    0.0000 C   0  0  0  0  0  0  0  0  0  0  0  0
    4.6292    0.1208    0.0000 C   0  0  0  0  0  0  0  0  0  0  0  0
   -1.2125   -3.2500    0.0000 C   0  0  0  0  0  0  0  0  0  0  0  0
   -1.2125   -2.4875    0.0000 C   0  0  0  0  0  0  0  0  0  0  0  0
  2 10  1  0  0  0  0
  3  1  1  0  0  0  0
  4  1  1  0  0  0  0
  5  4  1  0  0  0  0
  6  3  1  0  0  0  0
  7  5  2  0  0  0  0
  8 19  2  0  0  0  0
  9  2  1  0  0  0  0
 10  8  1  0  0  0  0
 11  9  2  0  0  0  0
 12  3  2  0  0  0  0
 13  1  2  0  0  0  0
 14  2  2  0  0  0  0
 15  6  1  0  0  0  0
 16  7  1  0  0  0  0
 17 12  1  0  0  0  0
 18  5  1  0  0  0  0
 19 20  1  0  0  0  0
 20 21  1  0  0  0  0
 21 18  2  0  0  0  0
 22  7  1  0  0  0  0
 23 11  1  0  0  0  0
 24  9  1  0  0  0  0
 25 22  1  0  0  0  0
 26 27  1  0  0  0  0
 27 24  2  0  0  0  0
 15 17  2  0  0  0  0
 16 20  2  0  0  0  0
 26 23  2  0  0  0  0
M  END
> <#>
2041

> <PLATE>
LAT026

> <ROW>
A

> <COL>
7

> <COORD>
A07

> <LATID>
LAT026A07

> <Supplier>
Chembridge

> <Suplier_CAT#>
5527196

> <Sec_Name>
151_F05

> <Concentration_(mM)>
2.5

> <IC50_(µM)>
inactive

> <Yeast_Active?>
-

> <Pubchem_CID>
1253390

$$$$
