
  -ISIS-  08130814242D

 25 27  0  0  0  0  0  0  0  0999 V2000
    6.1500    1.2250    0.0000 C   0  0  0  0  0  0  0  0  0  0  0  0
    6.8000    0.8500    0.0000 N   0  0  0  0  0  0  0  0  0  0  0  0
    5.5000    0.8500    0.0000 C   0  0  0  0  0  0  0  0  0  0  0  0
    8.1000    0.1000    0.0000 N   0  0  0  0  0  0  0  0  0  0  0  0
    6.1500    1.9750    0.0000 O   0  0  0  0  0  0  0  0  0  0  0  0
    2.9042    0.1000    0.0000 S   0  0  0  0  0  0  0  0  0  0  0  0
    4.8542    1.2250    0.0000 C   0  0  0  0  0  0  0  0  0  0  0  0
    5.5000    0.1000    0.0000 C   0  0  0  0  0  0  0  0  0  0  0  0
    2.2542   -0.2750    0.0000 C   0  0  0  0  0  0  0  0  0  0  0  0
    7.4500    1.2250    0.0000 C   0  0  0  0  0  0  0  0  0  0  0  0
    8.1000    0.8500    0.0000 C   0  0  0  0  0  0  0  0  0  0  0  0
    3.5542   -0.2750    0.0000 C   0  0  0  0  0  0  0  0  0  0  0  0
    4.2042    0.1000    0.0000 C   0  0  0  0  0  0  0  0  0  0  0  0
    4.8542   -0.2750    0.0000 C   0  0  0  0  0  0  0  0  0  0  0  0
    4.2042    0.8500    0.0000 C   0  0  0  0  0  0  0  0  0  0  0  0
    0.9542   -1.0250    0.0000 C   0  0  0  0  0  0  0  0  0  0  0  0
    2.2542   -1.0250    0.0000 C   0  0  0  0  0  0  0  0  0  0  0  0
    1.6042    0.1000    0.0000 C   0  0  0  0  0  0  0  0  0  0  0  0
    0.9542   -0.2750    0.0000 C   0  0  0  0  0  0  0  0  0  0  0  0
    1.6042   -1.4000    0.0000 C   0  0  0  0  0  0  0  0  0  0  0  0
    8.7500   -0.2750    0.0000 C   0  0  0  0  0  0  0  0  0  0  0  0
    8.7500    1.2250    0.0000 C   0  0  0  0  0  0  0  0  0  0  0  0
    0.3042   -1.4000    0.0000 C   0  0  0  0  0  0  0  0  0  0  0  0
    9.4000    0.1000    0.0000 C   0  0  0  0  0  0  0  0  0  0  0  0
    9.4000    0.8500    0.0000 C   0  0  0  0  0  0  0  0  0  0  0  0
  2  1  1  0  0  0  0
  3  1  1  0  0  0  0
  4 11  1  0  0  0  0
  5  1  2  0  0  0  0
  6 12  1  0  0  0  0
  7  3  1  0  0  0  0
  8  3  2  0  0  0  0
  9  6  1  0  0  0  0
 10  2  1  0  0  0  0
 11 10  1  0  0  0  0
 12 13  1  0  0  0  0
 13 14  2  0  0  0  0
 14  8  1  0  0  0  0
 15  7  2  0  0  0  0
 16 19  1  0  0  0  0
 17  9  2  0  0  0  0
 18  9  1  0  0  0  0
 19 18  2  0  0  0  0
 20 17  1  0  0  0  0
 21  4  2  0  0  0  0
 22 11  2  0  0  0  0
 23 16  1  0  0  0  0
 24 25  2  0  0  0  0
 25 22  1  0  0  0  0
 15 13  1  0  0  0  0
 21 24  1  0  0  0  0
 16 20  2  0  0  0  0
M  END
> <#>
1581

> <PLATE>
LAT020

> <ROW>
E

> <COL>
9

> <COORD>
E09

> <LATID>
LAT020E09

> <Supplier>
Chembridge

> <Suplier_CAT#>
7962316

> <Name>
Novel

> <Concentration_(mM)>
2.5

> <IC50_(µM)>
91

> <Yeast_Active?>
-

> <Pubchem_CID>
1252456

$$$$
