
  -ISIS-  08130814242D

 18 19  0  0  0  0  0  0  0  0999 V2000
    5.2417    2.9833    0.0000 C   0  0  0  0  0  0  0  0  0  0  0  0
    4.8667    2.3333    0.0000 C   0  0  0  0  0  0  0  0  0  0  0  0
    3.7417    1.6833    0.0000 C   0  0  0  0  0  0  0  0  0  0  0  0
    4.1167    2.3333    0.0000 C   0  0  0  0  0  0  0  0  0  0  0  0
    2.9917    1.6833    0.0000 N   0  0  0  0  0  0  0  0  0  0  0  0
    1.4917    2.9833    0.0000 N   0  0  0  0  0  0  0  0  0  0  0  0
    4.1167    1.0333    0.0000 C   0  0  0  0  0  0  0  0  0  0  0  0
    5.9917    2.9833    0.0000 O   0  0  0  0  0  0  0  0  0  0  0  0
    5.2417    1.6833    0.0000 C   0  0  0  0  0  0  0  0  0  0  0  0
    4.8667    1.0333    0.0000 C   0  0  0  0  0  0  0  0  0  0  0  0
    2.6167    2.3333    0.0000 C   0  0  0  0  0  0  0  0  0  0  0  0
    1.8667    2.3333    0.0000 C   0  0  0  0  0  0  0  0  0  0  0  0
    4.8667    3.6333    0.0000 O   0  0  0  0  0  0  0  0  0  0  0  0
    0.7417    2.9833    0.0000 C   0  0  0  0  0  0  0  0  0  0  0  0
    3.7417    0.3833    0.0000 C   0  0  0  0  0  0  0  0  0  0  0  0
    1.4917    1.6833    0.0000 C   0  0  0  0  0  0  0  0  0  0  0  0
    0.3667    2.3333    0.0000 C   0  0  0  0  0  0  0  0  0  0  0  0
    0.7417    1.6833    0.0000 C   0  0  0  0  0  0  0  0  0  0  0  0
  2  1  1  0  0  0  0
  3  4  2  0  0  0  0
  4  2  1  0  0  0  0
  5  3  1  0  0  0  0
  6 12  2  0  0  0  0
  7 10  2  0  0  0  0
  8  1  2  0  0  0  0
  9  2  2  0  0  0  0
 10  9  1  0  0  0  0
 11  5  1  0  0  0  0
 12 11  1  0  0  0  0
 13  1  1  0  0  0  0
 14  6  1  0  0  0  0
 15  7  1  0  0  0  0
 16 12  1  0  0  0  0
 17 18  1  0  0  0  0
 18 16  2  0  0  0  0
  7  3  1  0  0  0  0
 17 14  2  0  0  0  0
M  END
> <#>
1425

> <PLATE>
LAT018

> <ROW>
A

> <COL>
10

> <COORD>
A10

> <LATID>
LAT018A10

> <Supplier>
Chembridge

> <Suplier_CAT#>
9060656

> <Name>
Novel

> <Concentration_(mM)>
2.5

> <IC50_(µM)>
inactive

> <Yeast_Active?>
-

> <Pubchem_CID>
6471920

$$$$
