
  -ISIS-  08130814242D

 20 19  0  0  0  0  0  0  0  0999 V2000
    4.7042   -3.2417    0.0000 Cl  0  0  0  0  0  0  0  0  0  0  0  0
    7.4917   -3.1542    0.0000 N   0  3  0  0  0  0  0  0  0  0  0  0
    5.5417   -4.2792    0.0000 N   0  0  0  0  0  0  0  0  0  0  0  0
    6.8417   -4.2792    0.0000 C   0  0  0  0  0  0  0  0  0  0  0  0
    6.1917   -3.9042    0.0000 C   0  0  0  0  0  0  0  0  0  0  0  0
    7.4917   -3.9042    0.0000 C   0  0  0  0  0  0  0  0  0  0  0  0
    6.1917   -5.4042    0.0000 N   0  0  0  0  0  0  0  0  0  0  0  0
    5.5417   -5.0292    0.0000 C   0  0  0  0  0  0  0  0  0  0  0  0
    6.8417   -5.0292    0.0000 C   0  0  0  0  0  0  0  0  0  0  0  0
    8.1417   -2.7792    0.0000 C   0  0  0  0  0  0  0  0  0  0  0  0
    6.1917   -3.1542    0.0000 N   0  0  0  0  0  0  0  0  0  0  0  0
    6.8417   -2.7792    0.0000 C   0  0  0  0  0  0  0  0  0  0  0  0
    4.8917   -5.4167    0.0000 C   0  0  0  0  0  0  0  0  0  0  0  0
    8.7917   -3.1542    0.0000 C   0  0  0  0  0  0  0  0  0  0  0  0
    8.1417   -2.0292    0.0000 C   0  0  0  0  0  0  0  0  0  0  0  0
    4.2375   -5.0417    0.0000 C   0  0  0  0  0  0  0  0  0  0  0  0
    6.8417   -2.0292    0.0000 C   0  0  0  0  0  0  0  0  0  0  0  0
    3.5875   -5.4167    0.0000 C   0  0  0  0  0  0  0  0  0  0  0  0
    7.4917   -1.6542    0.0000 C   0  0  0  0  0  0  0  0  0  0  0  0
    8.2292   -3.9667    0.0000 Cl  0  5  0  0  0  0  0  0  0  0  0  0
  3  5  2  0  0  0  0
  4  6  1  0  0  0  0
  5  4  1  0  0  0  0
  6  2  1  0  0  0  0
  7  9  1  0  0  0  0
  8  7  2  0  0  0  0
  9  4  2  0  0  0  0
 10  2  1  0  0  0  0
 11  5  1  0  0  0  0
 12  2  2  0  0  0  0
 13  8  1  0  0  0  0
 14 10  1  0  0  0  0
 15 10  2  0  0  0  0
 16 13  1  0  0  0  0
 17 12  1  0  0  0  0
 18 16  1  0  0  0  0
 19 17  2  0  0  0  0
 15 19  1  0  0  0  0
  3  8  1  0  0  0  0
M  CHG  2   2   1  20  -1
M  END
> <#>
44

> <PLATE>
LAT001

> <ROW>
D

> <COL>
7

> <COORD>
D07

> <LATID>
LAT001D07

> <Supplier>
Microsource

> <Suplier_CAT#>
01500124

> <Name>
Amprolium

> <Concentration_(mM)>
2.5

> <IC50_(µM)>
inactive

> <Yeast_Active?>
-

> <Pubchem_CID>
2178

> <Description>
Coccidiostat

$$$$
