
  -ISIS-  08130814242D

 20 21  0  0  0  0  0  0  0  0999 V2000
   -2.3458    0.2458    0.0000 C   0  0  0  0  0  0  0  0  0  0  0  0
   -2.3458    1.0000    0.0000 C   0  0  0  0  0  0  0  0  0  0  0  0
   -3.0000    1.3833    0.0000 C   0  0  0  0  0  0  0  0  0  0  0  0
   -1.6625   -0.1500    0.0000 C   0  0  0  0  0  0  0  0  0  0  0  0
   -3.0000   -0.1500    0.0000 C   0  0  0  0  0  0  0  0  0  0  0  0
   -3.6625    1.0000    0.0000 C   0  0  0  0  0  0  0  0  0  0  0  0
   -1.0000    1.0000    0.0000 O   0  0  0  0  0  0  0  0  0  0  0  0
   -0.3458    1.3833    0.0000 C   0  0  0  0  0  0  0  0  0  0  0  0
   -1.0000    0.2458    0.0000 C   0  0  0  0  0  0  0  0  0  0  0  0
   -3.6625    0.2458    0.0000 C   0  0  0  0  0  0  0  0  0  0  0  0
   -1.6625   -0.9292    0.0000 O   0  0  0  0  0  0  0  0  0  0  0  0
    0.3292    1.0000    0.0000 C   0  0  0  0  0  0  0  0  0  0  0  0
   -1.6833    1.4000    0.0000 O   0  0  0  0  0  0  0  0  0  0  0  0
    0.3292    0.2208    0.0000 F   0  0  0  0  0  0  0  0  0  0  0  0
   -4.3458    1.3625    0.0000 O   0  0  0  0  0  0  0  0  0  0  0  0
   -3.0000    2.1625    0.0000 C   0  0  0  0  0  0  0  0  0  0  0  0
   -0.3208    2.1625    0.0000 C   0  0  0  0  0  0  0  0  0  0  0  0
    1.0000    1.3833    0.0000 C   0  0  0  0  0  0  0  0  0  0  0  0
    1.0042    2.1458    0.0000 C   0  0  0  0  0  0  0  0  0  0  0  0
    0.3292    2.5458    0.0000 C   0  0  0  0  0  0  0  0  0  0  0  0
  2  1  2  0  0  0  0
  3  2  1  0  0  0  0
  4  1  1  0  0  0  0
  5  1  1  0  0  0  0
  6 10  1  0  0  0  0
  7  9  1  0  0  0  0
  8  7  1  0  0  0  0
  9  4  1  0  0  0  0
 10  5  2  0  0  0  0
 11  4  2  0  0  0  0
 12  8  2  0  0  0  0
 13  2  1  0  0  0  0
 14 12  1  0  0  0  0
 15  6  1  0  0  0  0
 16  3  1  0  0  0  0
 17  8  1  0  0  0  0
 18 12  1  0  0  0  0
 19 20  1  0  0  0  0
 20 17  2  0  0  0  0
  3  6  2  0  0  0  0
 19 18  2  0  0  0  0
M  END
> <#>
1283

> <PLATE>
LAT017

> <ROW>
C

> <COL>
2

> <COORD>
C02

> <LATID>
LAT017C02

> <Supplier>
Chembridge

> <Suplier_CAT#>
6691431

> <Name>
Novel

> <Concentration_(mM)>
2.5

> <IC50_(µM)>
>100

> <Yeast_Active?>
-

> <Pubchem_CID>
805899

$$$$
