
  -ISIS-  08130814242D

 30 31  0  0  0  0  0  0  0  0999 V2000
    3.8667   -0.5167    0.0000 N   0  3  0  0  0  0  0  0  0  0  0  0
    3.7500   -1.2667    0.0000 C   0  0  0  0  0  0  0  0  0  0  0  0
    3.0500   -1.5375    0.0000 C   0  0  0  0  0  0  0  0  0  0  0  0
    2.9292   -2.2792    0.0000 C   0  0  0  0  0  0  0  0  0  0  0  0
    2.2292   -2.5500    0.0000 C   0  0  3  0  0  0  0  0  0  0  0  0
    6.3167   -1.6667    0.0000 C   0  0  0  0  0  0  0  0  0  0  0  0
    4.3375   -1.7375    0.0000 C   0  0  0  0  0  0  0  0  0  0  0  0
    7.6042   -1.8792    0.0000 N   0  0  0  0  0  0  0  0  0  0  0  0
    4.5667   -0.2500    0.0000 O   0  5  0  0  0  0  0  0  0  0  0  0
    3.2792   -0.0500    0.0000 O   0  0  0  0  0  0  0  0  0  0  0  0
    1.5500   -2.7292    0.0000 C   0  0  0  0  0  0  0  0  0  0  0  0
    5.0375   -1.4667    0.0000 O   0  0  0  0  0  0  0  0  0  0  0  0
    6.9042   -2.1500    0.0000 N   0  0  0  0  0  0  0  0  0  0  0  0
    6.4375   -0.9292    0.0000 O   0  0  0  0  0  0  0  0  0  0  0  0
    8.5375   -4.3000    0.0000 N   0  0  0  0  0  0  0  0  0  0  0  0
    3.5167   -2.7542    0.0000 C   0  0  0  0  0  0  0  0  0  0  0  0
    4.2167   -2.4875    0.0000 C   0  0  0  0  0  0  0  0  0  0  0  0
    1.0167   -2.1875    0.0000 C   0  0  3  0  0  0  0  0  0  0  0  0
    5.6167   -1.9375    0.0000 C   0  0  0  0  0  0  0  0  0  0  0  0
    8.1875   -2.3500    0.0000 C   0  0  0  0  0  0  0  0  0  0  0  0
    8.0667   -3.0875    0.0000 C   0  0  0  0  0  0  0  0  0  0  0  0
    8.6500   -3.5542    0.0000 C   0  0  0  0  0  0  0  0  0  0  0  0
    2.4417   -3.3000    0.0000 C   0  0  0  0  0  0  0  0  0  0  0  0
    1.6667   -2.0292    0.0000 C   0  0  0  0  0  0  0  0  0  0  0  0
    7.8375   -4.5667    0.0000 C   0  0  0  0  0  0  0  0  0  0  0  0
    0.5875   -1.6292    0.0000 C   0  0  0  0  0  0  0  0  0  0  0  0
    1.2792   -1.4667    0.0000 C   0  0  0  0  0  0  0  0  0  0  0  0
    0.4167   -2.6792    0.0000 C   0  0  0  0  0  0  0  0  0  0  0  0
    7.3667   -3.3542    0.0000 C   0  0  0  0  0  0  0  0  0  0  0  0
    7.2500   -4.1000    0.0000 C   0  0  0  0  0  0  0  0  0  0  0  0
  2  1  1  0  0  0  0
  3  2  2  0  0  0  0
  4  3  1  0  0  0  0
  5  4  1  0  0  0  0
  6 19  1  0  0  0  0
  7  2  1  0  0  0  0
  8 13  1  0  0  0  0
  9  1  1  0  0  0  0
 10  1  2  0  0  0  0
 11  5  1  0  0  0  0
 12  7  1  0  0  0  0
 13  6  1  0  0  0  0
 14  6  2  0  0  0  0
 15 22  1  0  0  0  0
 16 17  1  0  0  0  0
 17  7  2  0  0  0  0
 18 11  1  0  0  0  0
 19 12  1  0  0  0  0
 20  8  2  0  0  0  0
 21 20  1  0  0  0  0
 22 21  2  0  0  0  0
 23  5  1  0  0  0  0
 24  5  1  0  0  0  0
 25 30  1  0  0  0  0
 26 18  1  0  0  0  0
 27 18  1  0  0  0  0
 28 18  1  0  0  0  0
 29 21  1  0  0  0  0
 30 29  2  0  0  0  0
 16  4  2  0  0  0  0
 15 25  2  0  0  0  0
M  CHG  2   1   1   9  -1
M  END
> <#>
1617

> <PLATE>
LAT021

> <ROW>
A

> <COL>
4

> <COORD>
A04

> <LATID>
LAT021A04

> <Supplier>
Chembridge

> <Suplier_CAT#>
5232263

> <Name>
Novel

> <Concentration_(mM)>
2.5

> <IC50_(µM)>
inactive

> <Yeast_Active?>
-

> <Pubchem_CID>
1381878

$$$$
