
  -ISIS-  08130814242D

 13 13  0  0  0  0  0  0  0  0999 V2000
   -3.3792    2.1773    0.0000 C   0  0  1  0  0  0  0  0  0  0  0  0
   -2.1292    2.1773    0.0000 C   0  0  2  0  0  0  0  0  0  0  0  0
   -1.5042    1.0948    0.0000 C   0  0  2  0  0  0  0  0  0  0  0  0
   -2.1292    0.0123    0.0000 O   0  0  0  0  0  0  0  0  0  0  0  0
   -3.3792    0.0123    0.0000 C   0  0  1  0  0  0  0  0  0  0  0  0
   -4.0042    1.0948    0.0000 C   0  0  2  0  0  0  0  0  0  0  0  0
   -5.2542    1.0948    0.0000 O   0  0  0  0  0  0  0  0  0  0  0  0
   -4.0042   -1.0703    0.0000 O   0  0  0  0  0  0  0  0  0  0  0  0
   -0.2542    1.0948    0.0000 C   0  0  0  0  0  0  0  0  0  0  0  0
    0.3708    2.1773    0.0000 O   0  0  0  0  0  0  0  0  0  0  0  0
    0.3708    0.0123    0.0000 O   0  0  0  0  0  0  0  0  0  0  0  0
   -1.5042    3.2599    0.0000 O   0  0  0  0  0  0  0  0  0  0  0  0
   -4.0042    3.2599    0.0000 O   0  0  0  0  0  0  0  0  0  0  0  0
  1  2  1  0  0  0  0
  2  3  1  0  0  0  0
  3  4  1  0  0  0  0
  4  5  1  0  0  0  0
  5  6  1  0  0  0  0
  1  6  1  0  0  0  0
  6  7  1  6  0  0  0
  5  8  1  6  0  0  0
  3  9  1  1  0  0  0
  9 10  2  0  0  0  0
  9 11  1  0  0  0  0
  2 12  1  1  0  0  0
  1 13  1  1  0  0  0
M  END
> <#>
411

> <PLATE>
LAT006

> <ROW>
C

> <COL>
3

> <COORD>
C03

> <LATID>
LAT006C03

> <Supplier>
Nutirional Biochemicals

> <Suplier_CAT#>
Galacturonic_Acid

> <Name>
Galacturonic Acid

> <Concentration_(mM)>
2.5

> <IC50_(µM)>
inactive

> <Yeast_Active?>
-

> <Pubchem_CID>
610

$$$$
