
  -ISIS-  08130814242D

 25 27  0  0  0  0  0  0  0  0999 V2000
   -3.3625    0.0625    0.0000 N   0  0  3  0  0  0  0  0  0  0  0  0
   -3.7625   -0.2292    0.0000 C   0  0  0  0  0  0  0  0  0  0  0  0
   -3.1125   -0.7042    0.0000 C   0  0  0  0  0  0  0  0  0  0  0  0
   -2.9625   -0.2292    0.0000 C   0  0  0  0  0  0  0  0  0  0  0  0
   -3.6125   -0.7042    0.0000 S   0  0  0  0  0  0  0  0  0  0  0  0
   -3.3625    0.5458    0.0000 C   0  0  0  0  0  0  0  0  0  0  0  0
   -2.8208   -1.1000    0.0000 C   0  0  0  0  0  0  0  0  0  0  0  0
   -3.7708    0.7833    0.0000 N   0  0  0  0  0  0  0  0  0  0  0  0
   -2.3458   -1.0500    0.0000 C   0  0  0  0  0  0  0  0  0  0  0  0
   -4.2208   -0.0667    0.0000 O   0  0  0  0  0  0  0  0  0  0  0  0
   -2.4958   -0.0542    0.0000 O   0  0  0  0  0  0  0  0  0  0  0  0
   -3.7708    1.2625    0.0000 C   0  0  0  0  0  0  0  0  0  0  0  0
   -2.0625   -1.4292    0.0000 C   0  0  0  0  0  0  0  0  0  0  0  0
   -3.3625    1.5000    0.0000 C   0  0  0  0  0  0  0  0  0  0  0  0
   -2.2625   -1.8542    0.0000 Cl  0  0  0  0  0  0  0  0  0  0  0  0
   -2.9500    1.2625    0.0000 O   0  0  0  0  0  0  0  0  0  0  0  0
   -2.1500   -0.6167    0.0000 C   0  0  0  0  0  0  0  0  0  0  0  0
   -4.1833    1.5000    0.0000 C   0  0  0  0  0  0  0  0  0  0  0  0
   -1.5833   -1.3792    0.0000 C   0  0  0  0  0  0  0  0  0  0  0  0
   -3.3625    1.9833    0.0000 C   0  0  0  0  0  0  0  0  0  0  0  0
   -2.9500    0.8000    0.0000 C   0  0  0  0  0  0  0  0  0  0  0  0
   -1.6708   -0.5667    0.0000 C   0  0  0  0  0  0  0  0  0  0  0  0
   -1.3833   -0.9500    0.0000 C   0  0  0  0  0  0  0  0  0  0  0  0
   -3.7708    2.2208    0.0000 C   0  0  0  0  0  0  0  0  0  0  0  0
   -4.1833    1.9833    0.0000 C   0  0  0  0  0  0  0  0  0  0  0  0
  2  1  1  0  0  0  0
  3  4  1  0  0  0  0
  4  1  1  0  0  0  0
  5  2  1  0  0  0  0
  6  1  1  0  0  0  0
  7  3  2  0  0  0  0
  8  6  1  0  0  0  0
  9  7  1  0  0  0  0
 10  2  2  0  0  0  0
 11  4  2  0  0  0  0
 12  8  1  0  0  0  0
 13  9  2  0  0  0  0
 14 12  2  0  0  0  0
 15 13  1  0  0  0  0
 16 14  1  0  0  0  0
 17  9  1  0  0  0  0
 18 12  1  0  0  0  0
 19 13  1  0  0  0  0
 20 14  1  0  0  0  0
 21 16  1  0  0  0  0
 22 17  2  0  0  0  0
 23 22  1  0  0  0  0
 24 25  1  0  0  0  0
 25 18  2  0  0  0  0
  5  3  1  0  0  0  0
 20 24  2  0  0  0  0
 23 19  2  0  0  0  0
M  END
> <#>
762

> <PLATE>
LAT010

> <ROW>
B

> <COL>
7

> <COORD>
B07

> <LATID>
LAT010B07

> <Supplier>
Chembridge

> <Suplier_CAT#>
5607874

> <Name>
Novel

> <Sec_Name>
184_E06

> <Concentration_(mM)>
2.5

> <IC50_(µM)>
28

> <Yeast_Active?>
-

> <Pubchem_CID>
1351245

$$$$
