
  -ISIS-  08130814242D

 21 22  0  0  0  0  0  0  0  0999 V2000
    2.7000    0.6208    0.0000 C   0  0  0  0  0  0  0  0  0  0  0  0
    2.7000   -0.6167    0.0000 C   0  0  0  0  0  0  0  0  0  0  0  0
    1.6167    1.2458    0.0000 C   0  0  0  0  0  0  0  0  0  0  0  0
    0.5542    0.6208    0.0000 C   0  0  0  0  0  0  0  0  0  0  0  0
    3.8000    1.2625    0.0000 C   0  0  0  0  0  0  0  0  0  0  0  0
   -0.5458    1.2625    0.0000 C   0  0  0  0  0  0  0  0  0  0  0  0
    3.8000   -1.2542    0.0000 C   0  0  0  0  0  0  0  0  0  0  0  0
    1.6167   -1.2375    0.0000 C   0  0  0  0  0  0  0  0  0  0  0  0
   -1.6208    0.6458    0.0000 C   0  0  0  0  0  0  0  0  0  0  0  0
    0.5542   -0.6167    0.0000 C   0  0  0  0  0  0  0  0  0  0  0  0
    3.8000    2.5000    0.0000 O   0  0  0  0  0  0  0  0  0  0  0  0
    4.8792   -0.6167    0.0000 O   0  0  0  0  0  0  0  0  0  0  0  0
   -0.5458    2.5000    0.0000 O   0  0  0  0  0  0  0  0  0  0  0  0
   -1.6208   -0.6000    0.0000 C   0  0  0  0  0  0  0  0  0  0  0  0
   -2.7000    1.2625    0.0000 C   0  0  0  0  0  0  0  0  0  0  0  0
    4.8542    0.6458    0.0000 O   0  0  0  0  0  0  0  0  0  0  0  0
    3.8000   -2.5000    0.0000 O   0  0  0  0  0  0  0  0  0  0  0  0
   -3.7833   -0.6000    0.0000 C   0  0  0  0  0  0  0  0  0  0  0  0
   -3.7833    0.6458    0.0000 C   0  0  0  0  0  0  0  0  0  0  0  0
   -2.7000   -1.2167    0.0000 C   0  0  0  0  0  0  0  0  0  0  0  0
   -4.8833   -1.2167    0.0000 O   0  0  0  0  0  0  0  0  0  0  0  0
  2  1  2  0  0  0  0
  3  1  1  0  0  0  0
  4  3  2  0  0  0  0
  5  1  1  0  0  0  0
  6  4  1  0  0  0  0
  7  2  1  0  0  0  0
  8  2  1  0  0  0  0
  9  6  1  0  0  0  0
 10  4  1  0  0  0  0
 11  5  2  0  0  0  0
 12  7  2  0  0  0  0
 13  6  2  0  0  0  0
 14  9  1  0  0  0  0
 15  9  2  0  0  0  0
 16  5  1  0  0  0  0
 17  7  1  0  0  0  0
 18 19  2  0  0  0  0
 19 15  1  0  0  0  0
 20 14  2  0  0  0  0
 21 18  1  0  0  0  0
  8 10  2  0  0  0  0
 20 18  1  0  0  0  0
M  END
> <#>
1161

> <PLATE>
LAT015

> <ROW>
A

> <COL>
7

> <COORD>
A07

> <LATID>
LAT015A07

> <Supplier>
Chembridge

> <Suplier_CAT#>
5152589

> <Name>
Novel

> <Concentration_(mM)>
2.5

> <IC50_(µM)>
inactive

> <Yeast_Active?>
-

> <Pubchem_CID>
786803

$$$$
