
  -ISIS-  08130814242D

 32 35  0  0  0  0  0  0  0  0999 V2000
    3.4792   -3.9792    0.0000 N   0  0  3  0  0  0  0  0  0  0  0  0
    3.3042   -3.1667    0.0000 C   0  0  0  0  0  0  0  0  0  0  0  0
    4.0250   -2.7542    0.0000 N   0  0  0  0  0  0  0  0  0  0  0  0
    4.3000   -4.0625    0.0000 C   0  0  0  0  0  0  0  0  0  0  0  0
    4.6375   -3.3125    0.0000 N   0  0  0  0  0  0  0  0  0  0  0  0
    2.9292   -4.5917    0.0000 C   0  0  0  0  0  0  0  0  0  0  0  0
    4.7125   -4.7792    0.0000 S   0  0  0  0  0  0  0  0  0  0  0  0
    2.1250   -4.4167    0.0000 C   0  0  0  0  0  0  0  0  0  0  0  0
    2.5542   -2.8375    0.0000 C   0  0  0  0  0  0  0  0  0  0  0  0
    1.5667   -5.0292    0.0000 C   0  0  0  0  0  0  0  0  0  0  0  0
    5.9500   -5.4792    0.0000 C   0  0  0  0  0  0  0  0  0  0  0  0
    3.1875   -5.3667    0.0000 C   0  0  0  0  0  0  0  0  0  0  0  0
    6.7750   -5.4792    0.0000 N   0  0  0  0  0  0  0  0  0  0  0  0
    1.8250   -5.8167    0.0000 C   0  0  0  0  0  0  0  0  0  0  0  0
    5.5417   -6.1917    0.0000 O   0  0  0  0  0  0  0  0  0  0  0  0
    2.6375   -5.9792    0.0000 C   0  0  0  0  0  0  0  0  0  0  0  0
    5.5375   -4.7792    0.0000 C   0  0  0  0  0  0  0  0  0  0  0  0
    2.4667   -2.0167    0.0000 C   0  0  0  0  0  0  0  0  0  0  0  0
    1.8917   -3.3167    0.0000 C   0  0  0  0  0  0  0  0  0  0  0  0
    1.0500   -2.1667    0.0000 C   0  0  0  0  0  0  0  0  0  0  0  0
    7.1792   -6.1792    0.0000 C   0  0  0  0  0  0  0  0  0  0  0  0
    1.7167   -1.6792    0.0000 C   0  0  0  0  0  0  0  0  0  0  0  0
    1.1375   -2.9917    0.0000 C   0  0  0  0  0  0  0  0  0  0  0  0
    0.2917   -1.8292    0.0000 Cl  0  0  0  0  0  0  0  0  0  0  0  0
    7.9917   -6.1792    0.0000 C   0  0  0  0  0  0  0  0  0  0  0  0
    0.7625   -4.8542    0.0000 C   0  0  0  0  0  0  0  0  0  0  0  0
    1.2750   -6.4292    0.0000 C   0  0  0  0  0  0  0  0  0  0  0  0
    8.4000   -6.8917    0.0000 C   0  0  0  0  0  0  0  0  0  0  0  0
    8.4000   -5.4875    0.0000 C   0  0  0  0  0  0  0  0  0  0  0  0
    9.2125   -5.4875    0.0000 C   0  0  0  0  0  0  0  0  0  0  0  0
    9.2042   -6.8917    0.0000 C   0  0  0  0  0  0  0  0  0  0  0  0
    9.6167   -6.1875    0.0000 C   0  0  0  0  0  0  0  0  0  0  0  0
  2  1  1  0  0  0  0
  3  2  2  0  0  0  0
  4  1  1  0  0  0  0
  5  4  2  0  0  0  0
  6  1  1  0  0  0  0
  7  4  1  0  0  0  0
  8  6  2  0  0  0  0
  9  2  1  0  0  0  0
 10  8  1  0  0  0  0
 11 17  1  0  0  0  0
 12  6  1  0  0  0  0
 13 11  1  0  0  0  0
 14 16  1  0  0  0  0
 15 11  2  0  0  0  0
 16 12  2  0  0  0  0
 17  7  1  0  0  0  0
 18  9  2  0  0  0  0
 19  9  1  0  0  0  0
 20 23  1  0  0  0  0
 21 13  1  0  0  0  0
 22 18  1  0  0  0  0
 23 19  2  0  0  0  0
 24 20  1  0  0  0  0
 25 21  1  0  0  0  0
 26 10  1  0  0  0  0
 27 14  1  0  0  0  0
 28 25  2  0  0  0  0
 29 25  1  0  0  0  0
 30 29  2  0  0  0  0
 31 28  1  0  0  0  0
 32 30  1  0  0  0  0
  5  3  1  0  0  0  0
 10 14  2  0  0  0  0
 22 20  2  0  0  0  0
 32 31  2  0  0  0  0
M  END
> <#>
1731

> <PLATE>
LAT022

> <ROW>
C

> <COL>
8

> <COORD>
C08

> <LATID>
LAT022C08

> <Supplier>
Chembridge

> <Suplier_CAT#>
7572380

> <Name>
Novel

> <Concentration_(mM)>
2.5

> <IC50_(µM)>
inactive

> <Yeast_Active?>
-

> <Pubchem_CID>
2193880

$$$$
