
  -ISIS-  08130814242D

 28 31  0  0  0  0  0  0  0  0999 V2000
    7.9125    2.1333    0.0000 C   0  0  0  0  0  0  0  0  0  0  0  0
    8.5625    1.7583    0.0000 C   0  0  0  0  0  0  0  0  0  0  0  0
    7.9125    2.8833    0.0000 C   0  0  0  0  0  0  0  0  0  0  0  0
    9.2125    2.1333    0.0000 C   0  0  0  0  0  0  0  0  0  0  0  0
    8.5625    3.2583    0.0000 O   0  0  0  0  0  0  0  0  0  0  0  0
    7.2625    1.7583    0.0000 C   0  0  0  0  0  0  0  0  0  0  0  0
    9.2125    2.8833    0.0000 C   0  0  0  0  0  0  0  0  0  0  0  0
    7.2625    3.2583    0.0000 C   0  0  0  0  0  0  0  0  0  0  0  0
    6.6125    2.1333    0.0000 C   0  0  0  0  0  0  0  0  0  0  0  0
    4.6625    3.2583    0.0000 C   0  0  0  0  0  0  0  0  0  0  0  0
    8.5625    1.0083    0.0000 O   0  0  0  0  0  0  0  0  0  0  0  0
    6.6125    2.8833    0.0000 C   0  0  0  0  0  0  0  0  0  0  0  0
    4.0125    2.8833    0.0000 N   0  0  0  0  0  0  0  0  0  0  0  0
    4.6625    4.0042    0.0000 O   0  0  0  0  0  0  0  0  0  0  0  0
    5.9625    3.2583    0.0000 O   0  0  0  0  0  0  0  0  0  0  0  0
    7.2625    1.0083    0.0000 O   0  0  0  0  0  0  0  0  0  0  0  0
    3.3667    3.2583    0.0000 C   0  0  0  0  0  0  0  0  0  0  0  0
    5.3125    2.8833    0.0000 C   0  0  0  0  0  0  0  0  0  0  0  0
    2.0667    4.0042    0.0000 C   0  0  0  0  0  0  0  0  0  0  0  0
    9.8542    1.7583    0.0000 C   0  0  0  0  0  0  0  0  0  0  0  0
    2.7167    2.8833    0.0000 C   0  0  0  0  0  0  0  0  0  0  0  0
    3.3667    4.0042    0.0000 C   0  0  0  0  0  0  0  0  0  0  0  0
    2.7167    4.3792    0.0000 C   0  0  0  0  0  0  0  0  0  0  0  0
    2.0667    3.2583    0.0000 C   0  0  0  0  0  0  0  0  0  0  0  0
    9.8542    3.2583    0.0000 C   0  0  0  0  0  0  0  0  0  0  0  0
    1.4167    4.3792    0.0000 C   0  0  0  0  0  0  0  0  0  0  0  0
   10.5042    2.1333    0.0000 C   0  0  0  0  0  0  0  0  0  0  0  0
   10.5042    2.8833    0.0000 C   0  0  0  0  0  0  0  0  0  0  0  0
  2  1  1  0  0  0  0
  3  1  1  0  0  0  0
  4  2  1  0  0  0  0
  5  3  1  0  0  0  0
  6  1  2  0  0  0  0
  7  5  1  0  0  0  0
  8  3  2  0  0  0  0
  9  6  1  0  0  0  0
 10 18  1  0  0  0  0
 11  2  2  0  0  0  0
 12  9  2  0  0  0  0
 13 10  1  0  0  0  0
 14 10  2  0  0  0  0
 15 12  1  0  0  0  0
 16  6  1  0  0  0  0
 17 13  1  0  0  0  0
 18 15  1  0  0  0  0
 19 23  1  0  0  0  0
 20  4  1  0  0  0  0
 21 17  2  0  0  0  0
 22 17  1  0  0  0  0
 23 22  2  0  0  0  0
 24 21  1  0  0  0  0
 25  7  1  0  0  0  0
 26 19  1  0  0  0  0
 27 20  2  0  0  0  0
 28 25  2  0  0  0  0
  8 12  1  0  0  0  0
  7  4  2  0  0  0  0
 27 28  1  0  0  0  0
 24 19  2  0  0  0  0
M  END
> <#>
1975

> <PLATE>
LAT025

> <ROW>
G

> <COL>
8

> <COORD>
G08

> <LATID>
LAT025G08

> <Supplier>
Chembridge

> <Suplier_CAT#>
7953686

> <Concentration_(mM)>
2.5

> <IC50_(µM)>
inactive

> <Yeast_Active?>
-

> <Pubchem_CID>
5741112

$$$$
