
  -ISIS-  08130814242D

 29 31  0  0  0  0  0  0  0  0999 V2000
    1.3125   -0.8917    0.0000 S   0  0  3  0  0  0  0  0  0  0  0  0
    1.3167   -1.6417    0.0000 N   0  0  3  0  0  0  0  0  0  0  0  0
    3.9042   -3.1750    0.0000 C   0  0  0  0  0  0  0  0  0  0  0  0
    1.6792   -0.2500    0.0000 O   0  0  0  0  0  0  0  0  0  0  0  0
    2.0625   -0.8917    0.0000 O   0  0  0  0  0  0  0  0  0  0  0  0
    0.6542   -0.5167    0.0000 C   0  0  0  0  0  0  0  0  0  0  0  0
    4.5625   -2.8042    0.0000 N   0  0  0  0  0  0  0  0  0  0  0  0
    1.9667   -2.0292    0.0000 C   0  0  0  0  0  0  0  0  0  0  0  0
    3.2625   -2.7917    0.0000 C   0  0  0  0  0  0  0  0  0  0  0  0
    3.9000   -3.9292    0.0000 O   0  0  0  0  0  0  0  0  0  0  0  0
    2.6167   -1.6542    0.0000 C   0  0  0  0  0  0  0  0  0  0  0  0
    1.9625   -2.7792    0.0000 C   0  0  0  0  0  0  0  0  0  0  0  0
    3.2667   -2.0417    0.0000 C   0  0  0  0  0  0  0  0  0  0  0  0
    2.6042   -3.1625    0.0000 C   0  0  0  0  0  0  0  0  0  0  0  0
    5.2125   -3.1875    0.0000 C   0  0  0  0  0  0  0  0  0  0  0  0
    5.8667   -2.8125    0.0000 C   0  0  0  0  0  0  0  0  0  0  0  0
    7.1667   -2.0667    0.0000 C   0  0  0  0  0  0  0  0  0  0  0  0
    0.6667   -2.0250    0.0000 C   0  0  0  0  0  0  0  0  0  0  0  0
    6.5167   -3.1917    0.0000 C   0  0  0  0  0  0  0  0  0  0  0  0
    5.8667   -2.0625    0.0000 C   0  0  0  0  0  0  0  0  0  0  0  0
    7.1625   -2.8167    0.0000 C   0  0  0  0  0  0  0  0  0  0  0  0
    6.5167   -1.6917    0.0000 C   0  0  0  0  0  0  0  0  0  0  0  0
    7.8167   -1.6917    0.0000 O   0  0  0  0  0  0  0  0  0  0  0  0
    0.6542    0.2375    0.0000 C   0  0  0  0  0  0  0  0  0  0  0  0
    0.0125   -0.9000    0.0000 C   0  0  0  0  0  0  0  0  0  0  0  0
    8.4667   -2.0750    0.0000 C   0  0  0  0  0  0  0  0  0  0  0  0
   -0.6458   -0.5250    0.0000 C   0  0  0  0  0  0  0  0  0  0  0  0
    0.0042    0.6083    0.0000 C   0  0  0  0  0  0  0  0  0  0  0  0
   -0.6458    0.2333    0.0000 C   0  0  0  0  0  0  0  0  0  0  0  0
  2  1  1  0  0  0  0
  3  9  1  0  0  0  0
  4  1  2  0  0  0  0
  5  1  2  0  0  0  0
  6  1  1  0  0  0  0
  7  3  1  0  0  0  0
  8  2  1  0  0  0  0
  9 14  2  0  0  0  0
 10  3  2  0  0  0  0
 11  8  1  0  0  0  0
 12  8  2  0  0  0  0
 13 11  2  0  0  0  0
 14 12  1  0  0  0  0
 15  7  1  0  0  0  0
 16 15  1  0  0  0  0
 17 22  1  0  0  0  0
 18  2  1  0  0  0  0
 19 16  2  0  0  0  0
 20 16  1  0  0  0  0
 21 19  1  0  0  0  0
 22 20  2  0  0  0  0
 23 17  1  0  0  0  0
 24  6  2  0  0  0  0
 25  6  1  0  0  0  0
 26 23  1  0  0  0  0
 27 25  2  0  0  0  0
 28 24  1  0  0  0  0
 29 27  1  0  0  0  0
 29 28  2  0  0  0  0
 13  9  1  0  0  0  0
 17 21  2  0  0  0  0
M  END
> <#>
1855

> <PLATE>
LAT024

> <ROW>
G

> <COL>
3

> <COORD>
G03

> <LATID>
LAT024G03

> <Supplier>
Chembridge

> <Suplier_CAT#>
5734359

> <Name>
Novel

> <Sec_Name>
235_F07

> <Concentration_(mM)>
2.5

> <IC50_(µM)>
inactive

> <Yeast_Active?>
-

> <Pubchem_CID>
1107840

$$$$
