
  -ISIS-  08130814242D

 27 29  0  0  0  0  0  0  0  0999 V2000
    2.1292   -0.3792    0.0000 C   0  0  0  0  0  0  0  0  0  0  0  0
    2.9667    0.0000    0.0000 N   0  0  0  0  0  0  0  0  0  0  0  0
    2.2500   -1.3167    0.0000 N   0  0  3  0  0  0  0  0  0  0  0  0
   -0.2625    0.1208    0.0000 C   0  0  0  0  0  0  0  0  0  0  0  0
    1.3500    0.0958    0.0000 C   0  0  0  0  0  0  0  0  0  0  0  0
    0.5375   -0.3542    0.0000 C   0  0  0  0  0  0  0  0  0  0  0  0
    3.1542   -1.4875    0.0000 C   0  0  0  0  0  0  0  0  0  0  0  0
    3.6167   -0.6500    0.0000 C   0  0  0  0  0  0  0  0  0  0  0  0
   -0.2625    1.0625    0.0000 C   0  0  0  0  0  0  0  0  0  0  0  0
   -1.0625   -0.3375    0.0000 C   0  0  0  0  0  0  0  0  0  0  0  0
   -1.0625    1.5208    0.0000 C   0  0  0  0  0  0  0  0  0  0  0  0
   -1.8625    1.0833    0.0000 C   0  0  0  0  0  0  0  0  0  0  0  0
   -1.8625    0.1458    0.0000 C   0  0  0  0  0  0  0  0  0  0  0  0
    0.5375   -1.2875    0.0000 O   0  0  0  0  0  0  0  0  0  0  0  0
    0.5375    1.5458    0.0000 O   0  0  0  0  0  0  0  0  0  0  0  0
    1.6667   -1.9042    0.0000 C   0  0  0  0  0  0  0  0  0  0  0  0
   -2.6625    1.5833    0.0000 O   0  0  0  0  0  0  0  0  0  0  0  0
    3.6375   -2.2875    0.0000 C   0  0  0  0  0  0  0  0  0  0  0  0
    4.5500   -0.6500    0.0000 C   0  0  0  0  0  0  0  0  0  0  0  0
   -2.6833   -0.3375    0.0000 C   0  0  0  0  0  0  0  0  0  0  0  0
   -3.4833    0.1625    0.0000 C   0  0  0  0  0  0  0  0  0  0  0  0
   -5.9083   -0.2542    0.0000 C   0  0  0  0  0  0  0  0  0  0  0  0
   -5.0833    0.2000    0.0000 C   0  0  0  0  0  0  0  0  0  0  0  0
   -4.3000   -0.3000    0.0000 C   0  0  0  0  0  0  0  0  0  0  0  0
    4.5792   -2.2667    0.0000 C   0  0  0  0  0  0  0  0  0  0  0  0
    5.0375   -1.4542    0.0000 C   0  0  0  0  0  0  0  0  0  0  0  0
   -6.6792    0.2458    0.0000 C   0  0  0  0  0  0  0  0  0  0  0  0
  2  1  2  0  0  0  0
  3  1  1  0  0  0  0
  4  6  1  0  0  0  0
  5  1  1  0  0  0  0
  6  5  1  0  0  0  0
  7  3  1  0  0  0  0
  8  2  1  0  0  0  0
  9  4  2  0  0  0  0
 10  4  1  0  0  0  0
 11  9  1  0  0  0  0
 12 13  1  0  0  0  0
 13 10  2  0  0  0  0
 14  6  2  0  0  0  0
 15  9  1  0  0  0  0
 16  3  1  0  0  0  0
 17 12  1  0  0  0  0
 18  7  1  0  0  0  0
 19  8  1  0  0  0  0
 20 13  1  0  0  0  0
 21 20  1  0  0  0  0
 22 23  1  0  0  0  0
 23 24  1  0  0  0  0
 24 21  1  0  0  0  0
 25 18  2  0  0  0  0
 26 19  2  0  0  0  0
 27 22  1  0  0  0  0
  7  8  2  0  0  0  0
 25 26  1  0  0  0  0
 12 11  2  0  0  0  0
M  END
> <#>
1176

> <PLATE>
LAT015

> <ROW>
H

> <COL>
8

> <COORD>
H08

> <LATID>
LAT015H08

> <Supplier>
Chembridge

> <Suplier_CAT#>
5146655

> <Name>
Novel

> <Concentration_(mM)>
2.5

> <IC50_(µM)>
inactive

> <Yeast_Active?>
-

> <Pubchem_CID>
2830475

$$$$
