
  -ISIS-  08130814242D

 24 25  0  0  0  0  0  0  0  0999 V2000
    1.3292   -0.3667    0.0000 C   0  0  3  0  0  0  0  0  0  0  0  0
    0.5667   -0.8042    0.0000 C   0  0  0  0  0  0  0  0  0  0  0  0
    2.8542   -0.3792    0.0000 N   0  0  3  0  0  0  0  0  0  0  0  0
    2.1042   -0.8042    0.0000 C   0  0  0  0  0  0  0  0  0  0  0  0
   -0.1958   -0.3667    0.0000 C   0  0  0  0  0  0  0  0  0  0  0  0
    0.5667   -1.7042    0.0000 O   0  0  0  0  0  0  0  0  0  0  0  0
    1.3292    0.5125    0.0000 C   0  0  0  0  0  0  0  0  0  0  0  0
    4.3792    0.5000    0.0000 O   0  0  0  0  0  0  0  0  0  0  0  0
   -0.9500   -0.8042    0.0000 C   0  0  0  0  0  0  0  0  0  0  0  0
   -0.1958    0.5125    0.0000 C   0  0  0  0  0  0  0  0  0  0  0  0
   -1.7125    0.5125    0.0000 C   0  0  0  0  0  0  0  0  0  0  0  0
   -0.9500    0.9500    0.0000 C   0  0  0  0  0  0  0  0  0  0  0  0
   -1.7125   -0.3667    0.0000 C   0  0  0  0  0  0  0  0  0  0  0  0
   -2.4708    0.9625    0.0000 F   0  0  0  0  0  0  0  0  0  0  0  0
    2.8542    0.5000    0.0000 C   0  0  0  0  0  0  0  0  0  0  0  0
    3.6167   -0.8042    0.0000 C   0  0  0  0  0  0  0  0  0  0  0  0
    4.3792   -0.3792    0.0000 C   0  0  0  0  0  0  0  0  0  0  0  0
    3.6042    0.9458    0.0000 C   0  0  0  0  0  0  0  0  0  0  0  0
    0.5667    0.9500    0.0000 C   0  0  0  0  0  0  0  0  0  0  0  0
    2.1042    0.9500    0.0000 C   0  0  0  0  0  0  0  0  0  0  0  0
    2.1042    1.8333    0.0000 C   0  0  0  0  0  0  0  0  0  0  0  0
    0.5667    1.8333    0.0000 C   0  0  0  0  0  0  0  0  0  0  0  0
    1.3292    2.2708    0.0000 C   0  0  0  0  0  0  0  0  0  0  0  0
    2.9000   -1.3667    0.0000 Cl  0  0  0  0  0  0  0  0  0  0  0  0
  2  1  1  0  0  0  0
  3  4  1  0  0  0  0
  4  1  1  0  0  0  0
  5  2  1  0  0  0  0
  6  2  2  0  0  0  0
  7  1  1  0  0  0  0
  8 17  1  0  0  0  0
  9  5  1  0  0  0  0
 10  5  2  0  0  0  0
 11 12  2  0  0  0  0
 12 10  1  0  0  0  0
 13  9  2  0  0  0  0
 14 11  1  0  0  0  0
 15  3  1  0  0  0  0
 16  3  1  0  0  0  0
 17 16  1  0  0  0  0
 18 15  1  0  0  0  0
 19  7  2  0  0  0  0
 20  7  1  0  0  0  0
 21 20  2  0  0  0  0
 22 19  1  0  0  0  0
 23 21  1  0  0  0  0
 22 23  2  0  0  0  0
 18  8  1  0  0  0  0
 11 13  1  0  0  0  0
M  END
> <#>
1987

> <PLATE>
LAT025

> <ROW>
C

> <COL>
10

> <COORD>
C10

> <LATID>
LAT025C10

> <Supplier>
Chembridge

> <Suplier_CAT#>
5510292

> <Sec_Name>
146_B05

> <Concentration_(mM)>
2.5

> <IC50_(µM)>
inactive

> <Yeast_Active?>
+

> <Pubchem_CID>
659030

$$$$
