
  -ISIS-  08130814242D

 21 23  0  0  0  0  0  0  0  0999 V2000
   -0.6125   -0.4042    0.0000 S   0  0  3  0  0  0  0  0  0  0  0  0
   -1.4958   -0.6667    0.0000 C   0  0  0  0  0  0  0  0  0  0  0  0
    0.2500   -0.1667    0.0000 N   0  0  3  0  0  0  0  0  0  0  0  0
   -1.7333   -1.5292    0.0000 C   0  0  0  0  0  0  0  0  0  0  0  0
   -2.5958   -1.7500    0.0000 C   0  0  0  0  0  0  0  0  0  0  0  0
   -0.3708   -1.2875    0.0000 O   0  0  0  0  0  0  0  0  0  0  0  0
   -0.8500    0.4500    0.0000 O   0  0  0  0  0  0  0  0  0  0  0  0
   -2.1125   -0.0292    0.0000 C   0  0  0  0  0  0  0  0  0  0  0  0
    1.9875    0.3125    0.0000 N   0  0  3  0  0  0  0  0  0  0  0  0
    0.9042   -0.8042    0.0000 C   0  0  0  0  0  0  0  0  0  0  0  0
    0.4875    0.6958    0.0000 C   0  0  0  0  0  0  0  0  0  0  0  0
   -3.2125   -1.1042    0.0000 C   0  0  0  0  0  0  0  0  0  0  0  0
   -2.9708   -0.2500    0.0000 C   0  0  0  0  0  0  0  0  0  0  0  0
    1.7500   -0.5500    0.0000 C   0  0  0  0  0  0  0  0  0  0  0  0
    1.3500    0.9333    0.0000 C   0  0  0  0  0  0  0  0  0  0  0  0
   -4.0708   -1.3292    0.0000 Br  0  0  0  0  0  0  0  0  0  0  0  0
   -1.1125   -2.1667    0.0000 C   0  0  0  0  0  0  0  0  0  0  0  0
    2.8500    0.5500    0.0000 C   0  0  0  0  0  0  0  0  0  0  0  0
   -2.8333   -2.6042    0.0000 C   0  0  0  0  0  0  0  0  0  0  0  0
   -1.3500   -3.0042    0.0000 C   0  0  0  0  0  0  0  0  0  0  0  0
   -2.1958   -3.2500    0.0000 C   0  0  0  0  0  0  0  0  0  0  0  0
  2  1  1  0  0  0  0
  3  1  1  0  0  0  0
  4  2  1  0  0  0  0
  5  4  2  0  0  0  0
  6  1  2  0  0  0  0
  7  1  2  0  0  0  0
  8  2  2  0  0  0  0
  9 15  1  0  0  0  0
 10  3  1  0  0  0  0
 11  3  1  0  0  0  0
 12 13  2  0  0  0  0
 13  8  1  0  0  0  0
 14 10  1  0  0  0  0
 15 11  1  0  0  0  0
 16 12  1  0  0  0  0
 17  4  1  0  0  0  0
 18  9  1  0  0  0  0
 19  5  1  0  0  0  0
 20 17  2  0  0  0  0
 21 20  1  0  0  0  0
 14  9  1  0  0  0  0
 12  5  1  0  0  0  0
 19 21  2  0  0  0  0
M  END
> <#>
1941

> <PLATE>
LAT025

> <ROW>
E

> <COL>
4

> <COORD>
E04

> <LATID>
LAT025E04

> <Supplier>
Chembridge

> <Suplier_CAT#>
5791310

> <Name>
Novel

> <Concentration_(mM)>
2.5

> <IC50_(µM)>
inactive

> <Yeast_Active?>
-

> <Pubchem_CID>
1106574

$$$$
