
  -ISIS-  08130814242D

 21 22  0  0  0  0  0  0  0  0999 V2000
   -1.8458    1.2125    0.0000 C   0  0  0  0  0  0  0  0  0  0  0  0
    1.4000    1.5833    0.0000 C   0  0  0  0  0  0  0  0  0  0  0  0
   -2.4958    1.5833    0.0000 C   0  0  3  0  0  0  0  0  0  0  0  0
   -0.5458    1.2000    0.0000 N   0  0  0  0  0  0  0  0  0  0  0  0
    0.7500    1.2000    0.0000 C   0  0  0  0  0  0  0  0  0  0  0  0
   -1.1958    1.5833    0.0000 N   0  0  0  0  0  0  0  0  0  0  0  0
   -1.8458    0.4625    0.0000 O   0  0  0  0  0  0  0  0  0  0  0  0
    2.0375    1.2000    0.0000 C   0  0  0  0  0  0  0  0  0  0  0  0
    0.1000    1.5833    0.0000 C   0  0  0  0  0  0  0  0  0  0  0  0
   -3.1458    1.2125    0.0000 C   0  0  0  0  0  0  0  0  0  0  0  0
    1.4000    2.3333    0.0000 Cl  0  0  0  0  0  0  0  0  0  0  0  0
    2.6875    1.5833    0.0000 Cl  0  0  0  0  0  0  0  0  0  0  0  0
   -2.4958    2.3333    0.0000 O   0  0  0  0  0  0  0  0  0  0  0  0
    0.7375    0.4500    0.0000 C   0  0  0  0  0  0  0  0  0  0  0  0
    1.3875    0.0833    0.0000 C   0  0  0  0  0  0  0  0  0  0  0  0
    2.0375    0.4500    0.0000 C   0  0  0  0  0  0  0  0  0  0  0  0
   -3.8000    1.5958    0.0000 C   0  0  0  0  0  0  0  0  0  0  0  0
   -3.1458    0.4500    0.0000 C   0  0  0  0  0  0  0  0  0  0  0  0
   -4.4583    1.2125    0.0000 C   0  0  0  0  0  0  0  0  0  0  0  0
   -3.8000    0.0833    0.0000 C   0  0  0  0  0  0  0  0  0  0  0  0
   -4.4583    0.4500    0.0000 C   0  0  0  0  0  0  0  0  0  0  0  0
  2  5  2  0  0  0  0
  3  1  1  0  0  0  0
  4  6  1  0  0  0  0
  5  9  1  0  0  0  0
  6  1  1  0  0  0  0
  7  1  2  0  0  0  0
  8  2  1  0  0  0  0
  9  4  2  0  0  0  0
 10  3  1  0  0  0  0
 11  2  1  0  0  0  0
 12  8  1  0  0  0  0
 13  3  1  0  0  0  0
 14  5  1  0  0  0  0
 15 14  2  0  0  0  0
 16 15  1  0  0  0  0
 17 10  1  0  0  0  0
 18 10  2  0  0  0  0
 19 17  2  0  0  0  0
 20 18  1  0  0  0  0
 21 20  2  0  0  0  0
 19 21  1  0  0  0  0
 16  8  2  0  0  0  0
M  END
> <#>
1750

> <PLATE>
LAT022

> <ROW>
F

> <COL>
10

> <COORD>
F10

> <LATID>
LAT022F10

> <Supplier>
Chembridge

> <Suplier_CAT#>
5528138

> <Name>
Hydroxyacetoben

> <Sec_Name>
150_H11

> <Concentration_(mM)>
2.5

> <IC50_(µM)>
5

> <Yeast_Active?>
-

> <Pubchem_CID>
871006

$$$$
