
  -ISIS-  08130814242D

 26 27  0  0  0  0  0  0  0  0999 V2000
   -2.2375    0.4208    0.0000 C   0  0  0  0  0  0  0  0  0  0  0  0
   -2.3833   -0.2667    0.0000 C   0  0  0  0  0  0  0  0  0  0  0  0
   -0.3375    0.4375    0.0000 C   0  0  0  0  0  0  0  0  0  0  0  0
    2.6792   -0.4917    0.0000 C   0  0  0  0  0  0  0  0  0  0  0  0
    0.8917    0.2083    0.0000 N   0  0  0  0  0  0  0  0  0  0  0  0
    2.1292   -0.0167    0.0000 C   0  0  0  0  0  0  0  0  0  0  0  0
   -3.0833   -0.5000    0.0000 C   0  0  0  0  0  0  0  0  0  0  0  0
   -1.5708    0.6708    0.0000 O   0  0  0  0  0  0  0  0  0  0  0  0
    0.2000   -0.0167    0.0000 N   0  0  0  0  0  0  0  0  0  0  0  0
   -2.7875    0.9000    0.0000 C   0  0  0  0  0  0  0  0  0  0  0  0
   -0.2333    1.1500    0.0000 O   0  0  0  0  0  0  0  0  0  0  0  0
    3.3625   -0.2500    0.0000 C   0  0  0  0  0  0  0  0  0  0  0  0
    1.4292   -0.2417    0.0000 C   0  0  0  0  0  0  0  0  0  0  0  0
   -1.0000    0.2000    0.0000 C   0  0  0  0  0  0  0  0  0  0  0  0
   -1.8333   -0.7167    0.0000 C   0  0  3  0  0  0  0  0  0  0  0  0
   -3.6208   -0.0500    0.0000 C   0  0  0  0  0  0  0  0  0  0  0  0
   -3.4708    0.6500    0.0000 C   0  0  0  0  0  0  0  0  0  0  0  0
    2.5625   -1.1917    0.0000 O   0  0  0  0  0  0  0  0  0  0  0  0
    3.9000   -0.7125    0.0000 O   0  0  0  0  0  0  0  0  0  0  0  0
    2.2667    0.6833    0.0000 C   0  0  0  0  0  0  0  0  0  0  0  0
    2.9292    0.9208    0.0000 C   0  0  0  0  0  0  0  0  0  0  0  0
    3.5000    0.4500    0.0000 C   0  0  0  0  0  0  0  0  0  0  0  0
   -1.1833   -0.4500    0.0000 C   0  0  0  0  0  0  0  0  0  0  0  0
   -1.9375   -1.4417    0.0000 C   0  0  0  0  0  0  0  0  0  0  0  0
   -4.0083    1.1083    0.0000 C   0  0  0  0  0  0  0  0  0  0  0  0
    3.7792   -1.4125    0.0000 C   0  0  0  0  0  0  0  0  0  0  0  0
  2  1  2  0  0  0  0
  3 14  1  0  0  0  0
  4  6  2  0  0  0  0
  5  9  1  0  0  0  0
  6 13  1  0  0  0  0
  7  2  1  0  0  0  0
  8  1  1  0  0  0  0
  9  3  1  0  0  0  0
 10  1  1  0  0  0  0
 11  3  2  0  0  0  0
 12  4  1  0  0  0  0
 13  5  2  0  0  0  0
 14  8  1  0  0  0  0
 15  2  1  0  0  0  0
 16 17  1  0  0  0  0
 17 10  2  0  0  0  0
 18  4  1  0  0  0  0
 19 12  1  0  0  0  0
 20  6  1  0  0  0  0
 21 20  2  0  0  0  0
 22 21  1  0  0  0  0
 23 15  1  0  0  0  0
 24 15  1  0  0  0  0
 25 17  1  0  0  0  0
 26 19  1  0  0  0  0
 16  7  2  0  0  0  0
 22 12  2  0  0  0  0
M  END
> <#>
1867

> <PLATE>
LAT024

> <ROW>
C

> <COL>
5

> <COORD>
C05

> <LATID>
LAT024C05

> <Supplier>
Asinex

> <Suplier_CAT#>
BAS 00282267

> <Name>
Novel

> <Concentration_(mM)>
2.5

> <IC50_(µM)>
>100

> <Yeast_Active?>
+

> <Pubchem_CID>
NULL

$$$$
