
  -ISIS-  08130814242D

 21 22  0  0  0  0  0  0  0  0999 V2000
    5.1500    2.4625    0.0000 C   0  0  0  0  0  0  0  0  0  0  0  0
    5.8000    2.0875    0.0000 C   0  0  0  0  0  0  0  0  0  0  0  0
    4.5000    2.0875    0.0000 N   0  0  0  0  0  0  0  0  0  0  0  0
    1.2542    3.9625    0.0000 N   0  0  0  0  0  0  0  0  0  0  0  0
    6.4500    2.4625    0.0000 N   0  0  0  0  0  0  0  0  0  0  0  0
    1.9042    3.5875    0.0000 C   0  0  0  0  0  0  0  0  0  0  0  0
    5.1500    3.2125    0.0000 O   0  0  0  0  0  0  0  0  0  0  0  0
    8.3917    2.0875    0.0000 N   0  0  0  0  0  0  0  0  0  0  0  0
    5.8000    1.3375    0.0000 O   0  0  0  0  0  0  0  0  0  0  0  0
    3.8500    2.4625    0.0000 C   0  0  0  0  0  0  0  0  0  0  0  0
    2.5500    3.2125    0.0000 C   0  0  0  0  0  0  0  0  0  0  0  0
    7.1000    2.0875    0.0000 C   0  0  0  0  0  0  0  0  0  0  0  0
    7.7500    2.4625    0.0000 C   0  0  0  0  0  0  0  0  0  0  0  0
    3.2000    2.0875    0.0000 C   0  0  0  0  0  0  0  0  0  0  0  0
    3.8500    3.2125    0.0000 C   0  0  0  0  0  0  0  0  0  0  0  0
    3.2000    3.5875    0.0000 C   0  0  0  0  0  0  0  0  0  0  0  0
    2.5500    2.4625    0.0000 C   0  0  0  0  0  0  0  0  0  0  0  0
    9.0417    2.4625    0.0000 C   0  0  0  0  0  0  0  0  0  0  0  0
    7.7500    3.2125    0.0000 C   0  0  0  0  0  0  0  0  0  0  0  0
    9.0417    3.2125    0.0000 C   0  0  0  0  0  0  0  0  0  0  0  0
    8.3917    3.5875    0.0000 C   0  0  0  0  0  0  0  0  0  0  0  0
  2  1  1  0  0  0  0
  3  1  1  0  0  0  0
  4  6  3  0  0  0  0
  5  2  1  0  0  0  0
  6 11  1  0  0  0  0
  7  1  2  0  0  0  0
  8 13  1  0  0  0  0
  9  2  2  0  0  0  0
 10  3  1  0  0  0  0
 11 16  2  0  0  0  0
 12  5  1  0  0  0  0
 13 12  1  0  0  0  0
 14 10  1  0  0  0  0
 15 10  2  0  0  0  0
 16 15  1  0  0  0  0
 17 14  2  0  0  0  0
 18  8  2  0  0  0  0
 19 13  2  0  0  0  0
 20 21  2  0  0  0  0
 21 19  1  0  0  0  0
 11 17  1  0  0  0  0
 20 18  1  0  0  0  0
M  END
> <#>
1455

> <PLATE>
LAT019

> <ROW>
G

> <COL>
3

> <COORD>
G03

> <LATID>
LAT019G03

> <Supplier>
Chembridge

> <Suplier_CAT#>
9005709

> <Name>
Novel

> <Concentration_(mM)>
2.5

> <IC50_(µM)>
>100

> <Yeast_Active?>
-

> <Pubchem_CID>
2991473

$$$$
