
  -ISIS-  08130814242D

 33 36  0  0  0  0  0  0  0  0999 V2000
    4.1417    1.7708    0.0000 N   0  0  3  0  0  0  0  0  0  0  0  0
    3.7042    1.1625    0.0000 C   0  0  0  0  0  0  0  0  0  0  0  0
    4.1417    0.5583    0.0000 N   0  0  0  0  0  0  0  0  0  0  0  0
    4.8625    1.5375    0.0000 C   0  0  0  0  0  0  0  0  0  0  0  0
    4.8625    0.7875    0.0000 N   0  0  0  0  0  0  0  0  0  0  0  0
    5.4667    1.9833    0.0000 S   0  0  0  0  0  0  0  0  0  0  0  0
    2.9542    1.1625    0.0000 C   0  0  0  0  0  0  0  0  0  0  0  0
    3.9167    2.4833    0.0000 C   0  0  0  0  0  0  0  0  0  0  0  0
    6.7542    2.1208    0.0000 C   0  0  0  0  0  0  0  0  0  0  0  0
    0.7042    1.1625    0.0000 C   0  0  3  0  0  0  0  0  0  0  0  0
    1.4542    1.1625    0.0000 C   0  0  0  0  0  0  0  0  0  0  0  0
    7.4417    1.8083    0.0000 N   0  0  0  0  0  0  0  0  0  0  0  0
    6.6792    2.8625    0.0000 O   0  0  0  0  0  0  0  0  0  0  0  0
    2.5792    0.5125    0.0000 C   0  0  0  0  0  0  0  0  0  0  0  0
    2.5792    1.8125    0.0000 C   0  0  0  0  0  0  0  0  0  0  0  0
    1.8292    0.5125    0.0000 C   0  0  0  0  0  0  0  0  0  0  0  0
    1.8292    1.8125    0.0000 C   0  0  0  0  0  0  0  0  0  0  0  0
    6.1542    1.6750    0.0000 C   0  0  0  0  0  0  0  0  0  0  0  0
    8.0500    2.2500    0.0000 C   0  0  0  0  0  0  0  0  0  0  0  0
    8.7375    1.9458    0.0000 C   0  0  0  0  0  0  0  0  0  0  0  0
    0.5125    1.8958    0.0000 C   0  0  0  0  0  0  0  0  0  0  0  0
   -0.0333    1.0333    0.0000 C   0  0  0  0  0  0  0  0  0  0  0  0
    0.7667    0.4208    0.0000 C   0  0  0  0  0  0  0  0  0  0  0  0
    4.4167    3.0458    0.0000 C   0  0  0  0  0  0  0  0  0  0  0  0
    3.1792    2.6458    0.0000 C   0  0  0  0  0  0  0  0  0  0  0  0
    8.8167    1.2000    0.0000 C   0  0  0  0  0  0  0  0  0  0  0  0
    9.3417    2.3958    0.0000 C   0  0  0  0  0  0  0  0  0  0  0  0
    4.1875    3.7583    0.0000 C   0  0  0  0  0  0  0  0  0  0  0  0
    2.9500    3.3583    0.0000 C   0  0  0  0  0  0  0  0  0  0  0  0
    9.5000    0.8958    0.0000 C   0  0  0  0  0  0  0  0  0  0  0  0
   10.0292    2.0833    0.0000 C   0  0  0  0  0  0  0  0  0  0  0  0
   10.1042    1.3375    0.0000 C   0  0  0  0  0  0  0  0  0  0  0  0
    3.4542    3.9083    0.0000 C   0  0  0  0  0  0  0  0  0  0  0  0
  2  1  1  0  0  0  0
  3  2  2  0  0  0  0
  4  1  1  0  0  0  0
  5  4  2  0  0  0  0
  6  4  1  0  0  0  0
  7  2  1  0  0  0  0
  8  1  1  0  0  0  0
  9 18  1  0  0  0  0
 10 11  1  0  0  0  0
 11 17  2  0  0  0  0
 12  9  1  0  0  0  0
 13  9  2  0  0  0  0
 14  7  1  0  0  0  0
 15  7  2  0  0  0  0
 16 14  2  0  0  0  0
 17 15  1  0  0  0  0
 18  6  1  0  0  0  0
 19 12  1  0  0  0  0
 20 19  1  0  0  0  0
 21 10  1  0  0  0  0
 22 10  1  0  0  0  0
 23 10  1  0  0  0  0
 24  8  2  0  0  0  0
 25  8  1  0  0  0  0
 26 20  1  0  0  0  0
 27 20  2  0  0  0  0
 28 24  1  0  0  0  0
 29 25  2  0  0  0  0
 30 26  2  0  0  0  0
 31 27  1  0  0  0  0
 32 31  2  0  0  0  0
 33 29  1  0  0  0  0
  3  5  1  0  0  0  0
 33 28  2  0  0  0  0
 16 11  1  0  0  0  0
 32 30  1  0  0  0  0
M  END
> <#>
1742

> <PLATE>
LAT022

> <ROW>
F

> <COL>
9

> <COORD>
F09

> <LATID>
LAT022F09

> <Supplier>
Chembridge

> <Suplier_CAT#>
7892043

> <Name>
Novel

> <Concentration_(mM)>
2.5

> <IC50_(µM)>
inactive

> <Yeast_Active?>
-

> <Pubchem_CID>
2216264

$$$$
