
  -ISIS-  08130814242D

 44 48  0  0  0  0  0  0  0  0999 V2000
   11.7483   -3.6021    0.0000 C   0  0  2  0  0  0  0  0  0  0  0  0
   11.7483   -4.8521    0.0000 C   0  0  0  0  0  0  0  0  0  0  0  0
   10.6658   -5.4771    0.0000 C   0  0  0  0  0  0  0  0  0  0  0  0
    9.5833   -4.8521    0.0000 C   0  0  0  0  0  0  0  0  0  0  0  0
    8.5007   -5.4771    0.0000 C   0  0  0  0  0  0  0  0  0  0  0  0
    7.4182   -4.8521    0.0000 C   0  0  0  0  0  0  0  0  0  0  0  0
    7.4182   -3.6021    0.0000 C   0  0  0  0  0  0  0  0  0  0  0  0
    8.5008   -2.9771    0.0000 C   0  0  0  0  0  0  0  0  0  0  0  0
    9.5833   -3.6021    0.0000 C   0  0  0  0  0  0  0  0  0  0  0  0
   10.6658   -2.9771    0.0000 O   0  0  0  0  0  0  0  0  0  0  0  0
   10.6658   -6.7271    0.0000 O   0  0  0  0  0  0  0  0  0  0  0  0
    6.3357   -2.9771    0.0000 O   0  0  0  0  0  0  0  0  0  0  0  0
    4.1706   -2.9771    0.0000 O   0  0  0  0  0  0  0  0  0  0  0  0
    5.2532   -3.6021    0.0000 C   0  0  3  0  0  0  0  0  0  0  0  0
    5.2532   -4.8521    0.0000 C   0  0  1  0  0  0  0  0  0  0  0  0
    4.1706   -5.4771    0.0000 C   0  0  2  0  0  0  0  0  0  0  0  0
    3.0881   -4.8521    0.0000 C   0  0  2  0  0  0  0  0  0  0  0  0
    3.0881   -3.6021    0.0000 C   0  0  1  0  0  0  0  0  0  0  0  0
    2.0056   -2.9771    0.0000 C   0  0  0  0  0  0  0  0  0  0  0  0
    0.9230   -3.6021    0.0000 O   0  0  0  0  0  0  0  0  0  0  0  0
   -0.1595   -1.7271    0.0000 O   0  0  0  0  0  0  0  0  0  0  0  0
   -0.1595   -2.9771    0.0000 C   0  0  1  0  0  0  0  0  0  0  0  0
   -1.2420   -3.6021    0.0000 C   0  0  1  0  0  0  0  0  0  0  0  0
   -2.3246   -2.9771    0.0000 C   0  0  1  0  0  0  0  0  0  0  0  0
   -2.3246   -1.7271    0.0000 C   0  0  1  0  0  0  0  0  0  0  0  0
   -1.2420   -1.1021    0.0000 C   0  0  2  0  0  0  0  0  0  0  0  0
   -1.2420    0.1479    0.0000 C   0  0  0  0  0  0  0  0  0  0  0  0
   -3.4071   -1.1021    0.0000 O   0  0  0  0  0  0  0  0  0  0  0  0
   -3.4071   -3.6021    0.0000 O   0  0  0  0  0  0  0  0  0  0  0  0
   -1.2420   -4.8521    0.0000 O   0  0  0  0  0  0  0  0  0  0  0  0
    2.0056   -5.4771    0.0000 O   0  0  0  0  0  0  0  0  0  0  0  0
    4.1706   -6.7271    0.0000 O   0  0  0  0  0  0  0  0  0  0  0  0
    6.3357   -5.4771    0.0000 O   0  0  0  0  0  0  0  0  0  0  0  0
   12.8309   -2.9771    0.0000 C   0  0  0  0  0  0  0  0  0  0  0  0
   12.8309   -1.7271    0.0000 C   0  0  0  0  0  0  0  0  0  0  0  0
   13.9134   -1.1021    0.0000 C   0  0  0  0  0  0  0  0  0  0  0  0
   14.9959   -1.7271    0.0000 C   0  0  0  0  0  0  0  0  0  0  0  0
   14.9959   -2.9771    0.0000 C   0  0  0  0  0  0  0  0  0  0  0  0
   13.9134   -3.6021    0.0000 C   0  0  0  0  0  0  0  0  0  0  0  0
   16.0785   -1.1021    0.0000 O   0  0  0  0  0  0  0  0  0  0  0  0
   17.1610   -1.7271    0.0000 C   0  0  0  0  0  0  0  0  0  0  0  0
   13.9134    0.1479    0.0000 O   0  0  0  0  0  0  0  0  0  0  0  0
    8.5007   -6.7271    0.0000 O   0  0  0  0  0  0  0  0  0  0  0  0
    9.5792   -7.3500    0.0000 C   0  0  0  0  0  0  0  0  0  0  0  0
  1  2  1  0  0  0  0
  2  3  1  0  0  0  0
  3  4  1  0  0  0  0
  4  5  1  0  0  0  0
  5  6  2  0  0  0  0
  6  7  1  0  0  0  0
  7  8  2  0  0  0  0
  8  9  1  0  0  0  0
  4  9  2  0  0  0  0
  9 10  1  0  0  0  0
  1 10  1  0  0  0  0
  3 11  2  0  0  0  0
 13 14  1  0  0  0  0
 14 15  1  0  0  0  0
 15 16  1  0  0  0  0
 16 17  1  0  0  0  0
 17 18  1  0  0  0  0
 13 18  1  0  0  0  0
 21 22  1  0  0  0  0
 22 23  1  0  0  0  0
 23 24  1  0  0  0  0
 24 25  1  0  0  0  0
 25 26  1  0  0  0  0
 21 26  1  0  0  0  0
 26 27  1  6  0  0  0
 25 28  1  6  0  0  0
 24 29  1  6  0  0  0
 23 30  1  6  0  0  0
 22 20  1  6  0  0  0
 19 20  1  0  0  0  0
 18 19  1  1  0  0  0
 17 31  1  1  0  0  0
 16 32  1  1  0  0  0
 15 33  1  6  0  0  0
 12 14  1  0  0  0  0
  7 12  1  0  0  0  0
 34 35  1  0  0  0  0
 35 36  2  0  0  0  0
 36 37  1  0  0  0  0
 37 38  2  0  0  0  0
 38 39  1  0  0  0  0
 34 39  2  0  0  0  0
 40 41  1  0  0  0  0
 37 40  1  0  0  0  0
 36 42  1  0  0  0  0
  1 34  1  6  0  0  0
  5 43  1  0  0  0  0
 43 44  1  0  0  0  0
M  END
> <#>
365

> <PLATE>
LAT005

> <ROW>
E

> <COL>
7

> <COORD>
E07

> <LATID>
LAT005E07

> <Supplier>
Aldrich

> <Suplier_CAT#>
H5006

> <Name>
Hesperidin Methyl Chalcone

> <Concentration_(mM)>
2.5

> <IC50_(µM)>
inactive

> <Yeast_Active?>
-

> <Pubchem_CID>
10621

$$$$
