
  -ISIS-  08130814242D

 23 25  0  0  0  0  0  0  0  0999 V2000
    1.6875   -1.3292    0.0000 S   0  0  3  0  0  0  0  0  0  0  0  0
    1.6875   -0.5042    0.0000 C   0  0  0  0  0  0  0  0  0  0  0  0
    1.6875   -2.1292    0.0000 N   0  0  0  0  0  0  0  0  0  0  0  0
    1.0042   -0.1042    0.0000 C   0  0  0  0  0  0  0  0  0  0  0  0
    1.0042    0.6958    0.0000 C   0  0  0  0  0  0  0  0  0  0  0  0
    2.4875   -1.3292    0.0000 O   0  0  0  0  0  0  0  0  0  0  0  0
    0.8875   -1.3292    0.0000 O   0  0  0  0  0  0  0  0  0  0  0  0
    2.3792   -0.1042    0.0000 C   0  0  0  0  0  0  0  0  0  0  0  0
    1.6875    1.0958    0.0000 C   0  0  0  0  0  0  0  0  0  0  0  0
    1.0042   -2.5292    0.0000 C   0  0  0  0  0  0  0  0  0  0  0  0
    2.3792    0.6958    0.0000 C   0  0  0  0  0  0  0  0  0  0  0  0
   -0.3958   -2.5292    0.0000 N   0  0  0  0  0  0  0  0  0  0  0  0
    1.6875    1.8958    0.0000 O   0  0  0  0  0  0  0  0  0  0  0  0
    0.3042   -2.1292    0.0000 C   0  0  0  0  0  0  0  0  0  0  0  0
    0.3042   -0.5042    0.0000 C   0  0  0  0  0  0  0  0  0  0  0  0
    0.3042    1.0958    0.0000 C   0  0  0  0  0  0  0  0  0  0  0  0
   -0.3958   -3.3292    0.0000 C   0  0  0  0  0  0  0  0  0  0  0  0
    1.0042   -3.3292    0.0000 C   0  0  0  0  0  0  0  0  0  0  0  0
    2.3792    2.2958    0.0000 C   0  0  0  0  0  0  0  0  0  0  0  0
    0.3292   -3.7292    0.0000 C   0  0  0  0  0  0  0  0  0  0  0  0
   -0.3958   -0.1042    0.0000 C   0  0  0  0  0  0  0  0  0  0  0  0
   -0.3958    0.6958    0.0000 C   0  0  0  0  0  0  0  0  0  0  0  0
    2.3792    3.0958    0.0000 C   0  0  0  0  0  0  0  0  0  0  0  0
  2  1  1  0  0  0  0
  3  1  1  0  0  0  0
  4  2  1  0  0  0  0
  5  4  1  0  0  0  0
  6  1  2  0  0  0  0
  7  1  2  0  0  0  0
  8  2  2  0  0  0  0
  9 11  2  0  0  0  0
 10  3  1  0  0  0  0
 11  8  1  0  0  0  0
 12 14  2  0  0  0  0
 13  9  1  0  0  0  0
 14 10  1  0  0  0  0
 15  4  2  0  0  0  0
 16  5  2  0  0  0  0
 17 20  2  0  0  0  0
 18 10  2  0  0  0  0
 19 13  1  0  0  0  0
 20 18  1  0  0  0  0
 21 15  1  0  0  0  0
 22 21  2  0  0  0  0
 23 19  1  0  0  0  0
  5  9  1  0  0  0  0
 12 17  1  0  0  0  0
 16 22  1  0  0  0  0
M  END
> <#>
1934

> <PLATE>
LAT025

> <ROW>
F

> <COL>
3

> <COORD>
F03

> <LATID>
LAT025F03

> <Supplier>
Chembridge

> <Suplier_CAT#>
5656413

> <Name>
S001 D05

> <Concentration_(mM)>
2.5

> <IC50_(µM)>
inactive

> <Yeast_Active?>
-

> <Pubchem_CID>
774359

$$$$
