
  -ISIS-  08130814242D

 23 24  0  0  0  0  0  0  0  0999 V2000
    1.8000    1.9625    0.0000 C   0  0  0  0  0  0  0  0  0  0  0  0
    0.6375    1.3000    0.0000 N   0  0  0  0  0  0  0  0  0  0  0  0
   -0.9000   -0.0167    0.0000 C   0  0  0  0  0  0  0  0  0  0  0  0
    1.4167    1.3000    0.0000 N   0  0  0  0  0  0  0  0  0  0  0  0
   -0.5208    0.6458    0.0000 C   0  0  0  0  0  0  0  0  0  0  0  0
   -3.2000   -0.0167    0.0000 C   0  0  0  0  0  0  0  0  0  0  0  0
    1.4000    2.6208    0.0000 O   0  0  0  0  0  0  0  0  0  0  0  0
    4.1000    1.9833    0.0000 N   0  0  0  0  0  0  0  0  0  0  0  0
    2.5792    1.9833    0.0000 C   0  0  0  0  0  0  0  0  0  0  0  0
    0.2542    0.6458    0.0000 C   0  0  0  0  0  0  0  0  0  0  0  0
   -2.8208    0.6458    0.0000 C   0  0  0  0  0  0  0  0  0  0  0  0
   -2.8208   -0.6792    0.0000 C   0  0  0  0  0  0  0  0  0  0  0  0
   -1.6625   -0.0167    0.0000 C   0  0  0  0  0  0  0  0  0  0  0  0
   -3.9833   -0.0167    0.0000 C   0  0  3  0  0  0  0  0  0  0  0  0
   -2.0458   -0.6792    0.0000 C   0  0  0  0  0  0  0  0  0  0  0  0
   -2.0625    0.6458    0.0000 C   0  0  0  0  0  0  0  0  0  0  0  0
    3.7167    2.6458    0.0000 C   0  0  0  0  0  0  0  0  0  0  0  0
    3.7375    1.3208    0.0000 C   0  0  0  0  0  0  0  0  0  0  0  0
   -0.9000    1.3000    0.0000 C   0  0  0  0  0  0  0  0  0  0  0  0
    2.9542    1.3208    0.0000 C   0  0  0  0  0  0  0  0  0  0  0  0
    2.9542    2.6458    0.0000 C   0  0  0  0  0  0  0  0  0  0  0  0
   -4.3625    0.6458    0.0000 C   0  0  0  0  0  0  0  0  0  0  0  0
   -4.3625   -0.6792    0.0000 C   0  0  0  0  0  0  0  0  0  0  0  0
  2  4  1  0  0  0  0
  3  5  2  0  0  0  0
  4  1  1  0  0  0  0
  5 10  1  0  0  0  0
  6 11  2  0  0  0  0
  7  1  2  0  0  0  0
  8 17  1  0  0  0  0
  9  1  1  0  0  0  0
 10  2  2  0  0  0  0
 11 16  1  0  0  0  0
 12 15  2  0  0  0  0
 13  3  1  0  0  0  0
 14  6  1  0  0  0  0
 15 13  1  0  0  0  0
 16 13  2  0  0  0  0
 17 21  2  0  0  0  0
 18 20  1  0  0  0  0
 19  5  1  0  0  0  0
 20  9  2  0  0  0  0
 21  9  1  0  0  0  0
 22 14  1  0  0  0  0
 23 14  1  0  0  0  0
  8 18  2  0  0  0  0
 12  6  1  0  0  0  0
M  END
> <#>
1983

> <PLATE>
LAT025

> <ROW>
G

> <COL>
9

> <COORD>
G09

> <LATID>
LAT025G09

> <Supplier>
Chembridge

> <Suplier_CAT#>
5480422

> <Sec_Name>
141_E08

> <Concentration_(mM)>
2.5

> <IC50_(µM)>
>100

> <Yeast_Active?>
-

> <Pubchem_CID>
775139

$$$$
