
  -ISIS-  08130814242D

 21 22  0  0  0  0  0  0  0  0999 V2000
   -1.4500    0.2625    0.0000 C   0  0  0  0  0  0  0  0  0  0  0  0
   -1.4500    1.2000    0.0000 C   0  0  0  0  0  0  0  0  0  0  0  0
   -2.2625    1.6708    0.0000 C   0  0  0  0  0  0  0  0  0  0  0  0
   -0.6458   -0.2000    0.0000 C   0  0  0  0  0  0  0  0  0  0  0  0
   -2.2625   -0.2000    0.0000 C   0  0  0  0  0  0  0  0  0  0  0  0
   -3.0708    1.2000    0.0000 C   0  0  0  0  0  0  0  0  0  0  0  0
   -3.0708    0.2625    0.0000 C   0  0  0  0  0  0  0  0  0  0  0  0
    0.1500    0.2625    0.0000 C   0  0  0  0  0  0  0  0  0  0  0  0
   -0.6500   -1.0000    0.0000 O   0  0  0  0  0  0  0  0  0  0  0  0
    0.8292   -0.5000    0.0000 O   0  0  0  0  0  0  0  0  0  0  0  0
   -0.6458    1.6708    0.0000 O   0  0  0  0  0  0  0  0  0  0  0  0
    1.8000   -0.7000    0.0000 C   0  0  0  0  0  0  0  0  0  0  0  0
    3.5792   -1.4000    0.0000 C   0  0  0  0  0  0  0  0  0  0  0  0
    4.5167   -1.7667    0.0000 F   0  0  0  0  0  0  0  0  0  0  0  0
   -3.9458    1.6500    0.0000 O   0  0  0  0  0  0  0  0  0  0  0  0
    2.6500   -0.0667    0.0000 C   0  0  0  0  0  0  0  0  0  0  0  0
   -2.2500    2.4458    0.0000 C   0  0  0  0  0  0  0  0  0  0  0  0
    1.9167   -1.6000    0.0000 C   0  0  0  0  0  0  0  0  0  0  0  0
    2.8167   -1.9792    0.0000 C   0  0  0  0  0  0  0  0  0  0  0  0
    3.4667   -0.4792    0.0000 C   0  0  0  0  0  0  0  0  0  0  0  0
   -4.9583    1.1958    0.0000 C   0  0  0  0  0  0  0  0  0  0  0  0
  2  1  2  0  0  0  0
  3  2  1  0  0  0  0
  4  1  1  0  0  0  0
  5  1  1  0  0  0  0
  6  7  1  0  0  0  0
  7  5  2  0  0  0  0
  8  4  1  0  0  0  0
  9  4  2  0  0  0  0
 10  8  1  0  0  0  0
 11  2  1  0  0  0  0
 12 10  1  0  0  0  0
 13 19  1  0  0  0  0
 14 13  1  0  0  0  0
 15  6  1  0  0  0  0
 16 12  2  0  0  0  0
 17  3  1  0  0  0  0
 18 12  1  0  0  0  0
 19 18  2  0  0  0  0
 20 16  1  0  0  0  0
 21 15  1  0  0  0  0
  6  3  2  0  0  0  0
 13 20  2  0  0  0  0
M  END
> <#>
1281

> <PLATE>
LAT017

> <ROW>
A

> <COL>
2

> <COORD>
A02

> <LATID>
LAT017A02

> <Supplier>
Chembridge

> <Suplier_CAT#>
6666834

> <Name>
Novel

> <Concentration_(mM)>
2.5

> <IC50_(µM)>
inactive

> <Yeast_Active?>
-

> <Pubchem_CID>
797374

$$$$
