
  -ISIS-  08130814242D

 21 20  0  0  0  0  0  0  0  0999 V2000
   -4.1993   -0.8056    0.0000 O   0  0  0  0  0  0  0  0  0  0  0  0
    2.7321   -1.1351    0.0000 N   0  0  0  0  0  0  0  0  0  0  0  0
    3.8146   -0.5101    0.0000 C   0  0  0  0  0  0  0  0  0  0  0  0
    3.8146    0.7399    0.0000 C   0  0  0  0  0  0  0  0  0  0  0  0
    2.7321    1.3649    0.0000 C   0  0  0  0  0  0  0  0  0  0  0  0
    1.0000    0.3649    0.0000 N   0  3  0  0  0  0  0  0  0  0  0  0
    0.8694   -0.8783    0.0000 C   0  0  0  0  0  0  0  0  0  0  0  0
   -0.3533   -1.1382    0.0000 S   0  0  0  0  0  0  0  0  0  0  0  0
   -0.9783   -0.0556    0.0000 C   0  0  0  0  0  0  0  0  0  0  0  0
   -2.2215    0.0750    0.0000 C   0  0  0  0  0  0  0  0  0  0  0  0
   -2.9562   -0.9362    0.0000 C   0  0  0  0  0  0  0  0  0  0  0  0
   -0.1419    0.8733    0.0000 C   0  0  0  0  0  0  0  0  0  0  0  0
   -0.4018    2.0960    0.0000 C   0  0  0  0  0  0  0  0  0  0  0  0
    4.8972    1.3649    0.0000 C   0  0  0  0  0  0  0  0  0  0  0  0
    5.9797    0.7399    0.0000 N   0  0  0  0  0  0  0  0  0  0  0  0
    5.9797   -0.5101    0.0000 C   0  0  0  0  0  0  0  0  0  0  0  0
    7.0622   -1.1351    0.0000 C   0  0  0  0  0  0  0  0  0  0  0  0
    4.8972   -1.1351    0.0000 N   0  0  0  0  0  0  0  0  0  0  0  0
    0.8692    2.8615    0.0000 Cl  0  5  0  0  0  0  0  0  0  0  0  0
    3.7999   -2.1719    0.0000 H   0  0  0  0  0  0  0  0  0  0  0  0
    2.5568   -2.0412    0.0000 Cl  0  0  0  0  0  0  0  0  0  0  0  0
  2  3  1  0  0  0  0
  3  4  2  0  0  0  0
  4  5  1  0  0  0  0
  5  6  1  0  0  0  0
  6  7  2  0  0  0  0
  7  8  1  0  0  0  0
  8  9  1  0  0  0  0
  9 10  1  0  0  0  0
 10 11  1  0  0  0  0
  1 11  1  0  0  0  0
  9 12  2  0  0  0  0
  6 12  1  0  0  0  0
 12 13  1  0  0  0  0
  4 14  1  0  0  0  0
 14 15  2  0  0  0  0
 15 16  1  0  0  0  0
 16 17  1  0  0  0  0
 16 18  2  0  0  0  0
  3 18  1  0  0  0  0
 20 21  1  0  0  0  0
M  CHG  2   6   1  19  -1
M  END
> <#>
393

> <PLATE>
LAT005

> <ROW>
A

> <COL>
11

> <COORD>
A11

> <LATID>
LAT005A11

> <Supplier>
Sigma

> <Suplier_CAT#>
T-3902

> <Name>
Thiamine

> <Concentration_(mM)>
2.5

> <IC50_(µM)>
inactive

> <Yeast_Active?>
-

> <Pubchem_CID>
1130

$$$$
