
  -ISIS-  08130814242D

 25 27  0  0  0  0  0  0  0  0999 V2000
   -2.3208    0.6833    0.0000 N   0  0  3  0  0  0  0  0  0  0  0  0
   -1.2208    0.8000    0.0000 C   0  0  0  0  0  0  0  0  0  0  0  0
   -2.1833    1.3458    0.0000 N   0  0  0  0  0  0  0  0  0  0  0  0
   -1.7208    0.3458    0.0000 C   0  0  0  0  0  0  0  0  0  0  0  0
   -1.5208    1.4208    0.0000 C   0  0  0  0  0  0  0  0  0  0  0  0
    1.5000    0.3208    0.0000 C   0  0  0  0  0  0  0  0  0  0  0  0
   -0.5458    0.6833    0.0000 C   0  0  0  0  0  0  0  0  0  0  0  0
    1.7542   -0.3375    0.0000 C   0  0  0  0  0  0  0  0  0  0  0  0
    1.9375    0.8625    0.0000 C   0  0  0  0  0  0  0  0  0  0  0  0
   -2.9208    0.3458    0.0000 C   0  0  0  0  0  0  0  0  0  0  0  0
   -1.6458   -0.3542    0.0000 O   0  0  0  0  0  0  0  0  0  0  0  0
    0.8167    0.4458    0.0000 C   0  0  0  0  0  0  0  0  0  0  0  0
   -0.1000    1.2208    0.0000 N   0  0  0  0  0  0  0  0  0  0  0  0
    2.4375   -0.4542    0.0000 O   0  0  0  0  0  0  0  0  0  0  0  0
    0.5792    1.1000    0.0000 C   0  0  0  0  0  0  0  0  0  0  0  0
    1.7000    1.5000    0.0000 C   0  0  0  0  0  0  0  0  0  0  0  0
    1.3167   -0.8792    0.0000 O   0  0  0  0  0  0  0  0  0  0  0  0
    2.6375    0.7625    0.0000 Cl  0  0  0  0  0  0  0  0  0  0  0  0
    1.0167    1.6208    0.0000 C   0  0  0  0  0  0  0  0  0  0  0  0
   -1.1833    2.0208    0.0000 C   0  0  0  0  0  0  0  0  0  0  0  0
   -3.5000    0.6833    0.0000 C   0  0  0  0  0  0  0  0  0  0  0  0
   -2.9208   -0.3542    0.0000 C   0  0  0  0  0  0  0  0  0  0  0  0
   -3.5000   -0.7000    0.0000 C   0  0  0  0  0  0  0  0  0  0  0  0
   -4.1000    0.3458    0.0000 C   0  0  0  0  0  0  0  0  0  0  0  0
   -4.1000   -0.3542    0.0000 C   0  0  0  0  0  0  0  0  0  0  0  0
  2  4  1  0  0  0  0
  3  1  1  0  0  0  0
  4  1  1  0  0  0  0
  5  3  2  0  0  0  0
  6 12  2  0  0  0  0
  7  2  2  0  0  0  0
  8  6  1  0  0  0  0
  9 16  2  0  0  0  0
 10  1  1  0  0  0  0
 11  4  2  0  0  0  0
 12 15  1  0  0  0  0
 13  7  1  0  0  0  0
 14  8  2  0  0  0  0
 15 13  1  0  0  0  0
 16 19  1  0  0  0  0
 17  8  1  0  0  0  0
 18  9  1  0  0  0  0
 19 15  2  0  0  0  0
 20  5  1  0  0  0  0
 21 10  2  0  0  0  0
 22 10  1  0  0  0  0
 23 22  2  0  0  0  0
 24 21  1  0  0  0  0
 25 23  1  0  0  0  0
  2  5  1  0  0  0  0
 25 24  2  0  0  0  0
  9  6  1  0  0  0  0
M  END
> <#>
1077

> <PLATE>
LAT014

> <ROW>
E

> <COL>
6

> <COORD>
E06

> <LATID>
LAT014E06

> <Supplier>
Chembridge

> <Suplier_CAT#>
5624418

> <Name>
Novel

> <Sec_Name>
189_E09

> <Concentration_(mM)>
2.5

> <IC50_(µM)>
>100

> <Yeast_Active?>
-

> <Pubchem_CID>
NULL

$$$$
