
  -ISIS-  08130814242D

 36 40  0  0  0  0  0  0  0  0999 V2000
   -1.1833   -1.6000    0.0000 N   0  0  3  0  0  0  0  0  0  0  0  0
   -1.9708   -2.1500    0.0000 C   0  0  0  0  0  0  0  0  0  0  0  0
   -1.6708   -3.0667    0.0000 N   0  0  0  0  0  0  0  0  0  0  0  0
   -0.4125   -2.1875    0.0000 C   0  0  0  0  0  0  0  0  0  0  0  0
   -0.7125   -3.0667    0.0000 N   0  0  0  0  0  0  0  0  0  0  0  0
   -2.8458   -1.7542    0.0000 C   0  0  0  0  0  0  0  0  0  0  0  0
    1.9667    0.1500    0.0000 N   0  0  0  0  0  0  0  0  0  0  0  0
    2.9042    0.4000    0.0000 C   0  0  3  0  0  0  0  0  0  0  0  0
    0.5375   -1.9167    0.0000 S   0  0  0  0  0  0  0  0  0  0  0  0
    1.7042   -0.7500    0.0000 C   0  0  0  0  0  0  0  0  0  0  0  0
   -1.2833   -0.6542    0.0000 C   0  0  0  0  0  0  0  0  0  0  0  0
   -3.6000   -2.3167    0.0000 C   0  0  0  0  0  0  0  0  0  0  0  0
    2.3792   -1.4292    0.0000 O   0  0  0  0  0  0  0  0  0  0  0  0
    3.1667    1.3125    0.0000 C   0  0  0  0  0  0  0  0  0  0  0  0
    3.5667   -0.2667    0.0000 C   0  0  0  0  0  0  0  0  0  0  0  0
    0.7875   -1.0000    0.0000 C   0  0  0  0  0  0  0  0  0  0  0  0
   -4.4708   -1.9000    0.0000 C   0  0  0  0  0  0  0  0  0  0  0  0
   -5.2500   -2.4875    0.0000 F   0  0  0  0  0  0  0  0  0  0  0  0
   -2.9458   -0.7875    0.0000 C   0  0  0  0  0  0  0  0  0  0  0  0
   -3.8000   -0.4042    0.0000 C   0  0  0  0  0  0  0  0  0  0  0  0
   -0.4958   -0.0917    0.0000 C   0  0  0  0  0  0  0  0  0  0  0  0
   -2.1458   -0.2375    0.0000 C   0  0  0  0  0  0  0  0  0  0  0  0
    2.5042    1.9958    0.0000 C   0  0  0  0  0  0  0  0  0  0  0  0
    3.3042   -1.1875    0.0000 C   0  0  0  0  0  0  0  0  0  0  0  0
    4.5042   -0.0292    0.0000 C   0  0  0  0  0  0  0  0  0  0  0  0
    4.0875    1.5625    0.0000 C   0  0  0  0  0  0  0  0  0  0  0  0
   -4.5708   -0.9542    0.0000 C   0  0  0  0  0  0  0  0  0  0  0  0
    4.3500    2.4708    0.0000 C   0  0  0  0  0  0  0  0  0  0  0  0
    2.7667    2.9000    0.0000 C   0  0  0  0  0  0  0  0  0  0  0  0
    3.9875   -1.8875    0.0000 C   0  0  0  0  0  0  0  0  0  0  0  0
    5.1667   -0.7000    0.0000 C   0  0  0  0  0  0  0  0  0  0  0  0
   -2.2208    0.7208    0.0000 C   0  0  0  0  0  0  0  0  0  0  0  0
   -0.5500    0.8208    0.0000 C   0  0  0  0  0  0  0  0  0  0  0  0
   -1.4208    1.2708    0.0000 C   0  0  0  0  0  0  0  0  0  0  0  0
    3.6792    3.1500    0.0000 C   0  0  0  0  0  0  0  0  0  0  0  0
    4.9042   -1.6500    0.0000 C   0  0  0  0  0  0  0  0  0  0  0  0
  2  1  1  0  0  0  0
  3  2  2  0  0  0  0
  4  1  1  0  0  0  0
  5  4  2  0  0  0  0
  6  2  1  0  0  0  0
  7 10  1  0  0  0  0
  8  7  1  0  0  0  0
  9  4  1  0  0  0  0
 10 16  1  0  0  0  0
 11  1  1  0  0  0  0
 12  6  2  0  0  0  0
 13 10  2  0  0  0  0
 14  8  1  0  0  0  0
 15  8  1  0  0  0  0
 16  9  1  0  0  0  0
 17 12  1  0  0  0  0
 18 17  1  0  0  0  0
 19  6  1  0  0  0  0
 20 19  2  0  0  0  0
 21 11  1  0  0  0  0
 22 11  2  0  0  0  0
 23 14  1  0  0  0  0
 24 15  1  0  0  0  0
 25 15  2  0  0  0  0
 26 14  2  0  0  0  0
 27 20  1  0  0  0  0
 28 26  1  0  0  0  0
 29 23  2  0  0  0  0
 30 24  2  0  0  0  0
 31 25  1  0  0  0  0
 32 22  1  0  0  0  0
 33 21  2  0  0  0  0
 34 32  2  0  0  0  0
 35 28  2  0  0  0  0
 36 31  2  0  0  0  0
  3  5  1  0  0  0  0
 34 33  1  0  0  0  0
 27 17  2  0  0  0  0
 30 36  1  0  0  0  0
 29 35  1  0  0  0  0
M  END
> <#>
1712

> <PLATE>
LAT022

> <ROW>
H

> <COL>
5

> <COORD>
H05

> <LATID>
LAT022H05

> <Supplier>
Chembridge

> <Suplier_CAT#>
5928760

> <Name>
Novel

> <Concentration_(mM)>
2.5

> <IC50_(µM)>
65

> <Yeast_Active?>
-

> <Pubchem_CID>
NULL

$$$$
