
  -ISIS-  08130814242D

 24 25  0  0  0  0  0  0  0  0999 V2000
    3.2542   -2.8542    0.0000 S   0  0  3  0  0  0  0  0  0  0  0  0
    3.2667   -2.1042    0.0000 N   0  0  3  0  0  0  0  0  0  0  0  0
    3.9167   -1.7292    0.0000 C   0  0  0  0  0  0  0  0  0  0  0  0
    2.6042   -1.7292    0.0000 C   0  0  0  0  0  0  0  0  0  0  0  0
    4.5667   -2.1042    0.0000 C   0  0  0  0  0  0  0  0  0  0  0  0
    4.0167   -2.8542    0.0000 O   0  0  0  0  0  0  0  0  0  0  0  0
    3.6667   -3.6000    0.0000 O   0  0  0  0  0  0  0  0  0  0  0  0
    5.2292   -1.7375    0.0000 N   0  0  0  0  0  0  0  0  0  0  0  0
    5.8667   -2.1042    0.0000 C   0  0  0  0  0  0  0  0  0  0  0  0
    1.9542   -2.1000    0.0000 C   0  0  0  0  0  0  0  0  0  0  0  0
    2.6042   -0.9667    0.0000 C   0  0  0  0  0  0  0  0  0  0  0  0
    4.5667   -2.8542    0.0000 O   0  0  0  0  0  0  0  0  0  0  0  0
    6.5167   -1.7375    0.0000 C   0  0  0  0  0  0  0  0  0  0  0  0
    2.6042   -3.2292    0.0000 C   0  0  0  0  0  0  0  0  0  0  0  0
    7.1667   -2.1167    0.0000 C   0  0  0  0  0  0  0  0  0  0  0  0
    7.8167   -1.7375    0.0000 Br  0  0  0  0  0  0  0  0  0  0  0  0
    1.3042   -0.9667    0.0000 C   0  0  0  0  0  0  0  0  0  0  0  0
    6.5167   -3.2375    0.0000 C   0  0  0  0  0  0  0  0  0  0  0  0
    1.3042   -1.7292    0.0000 C   0  0  0  0  0  0  0  0  0  0  0  0
    1.9542   -0.6000    0.0000 C   0  0  0  0  0  0  0  0  0  0  0  0
    5.8667   -2.8542    0.0000 C   0  0  0  0  0  0  0  0  0  0  0  0
    1.9542   -2.8500    0.0000 C   0  0  0  0  0  0  0  0  0  0  0  0
    3.2542   -0.6000    0.0000 C   0  0  0  0  0  0  0  0  0  0  0  0
    7.1667   -2.8667    0.0000 C   0  0  0  0  0  0  0  0  0  0  0  0
  2  1  1  0  0  0  0
  3  2  1  0  0  0  0
  4  2  1  0  0  0  0
  5  3  1  0  0  0  0
  6  1  2  0  0  0  0
  7  1  2  0  0  0  0
  8  5  1  0  0  0  0
  9  8  1  0  0  0  0
 10  4  1  0  0  0  0
 11  4  2  0  0  0  0
 12  5  2  0  0  0  0
 13  9  2  0  0  0  0
 14  1  1  0  0  0  0
 15 13  1  0  0  0  0
 16 15  1  0  0  0  0
 17 20  2  0  0  0  0
 18 21  2  0  0  0  0
 19 10  2  0  0  0  0
 20 11  1  0  0  0  0
 21  9  1  0  0  0  0
 22 10  1  0  0  0  0
 23 11  1  0  0  0  0
 24 18  1  0  0  0  0
 17 19  1  0  0  0  0
 15 24  2  0  0  0  0
M  END
> <#>
771

> <PLATE>
LAT010

> <ROW>
C

> <COL>
8

> <COORD>
C08

> <LATID>
LAT010C08

> <Supplier>
Chembridge

> <Suplier_CAT#>
5613327

> <Name>
Novel

> <Sec_Name>
185_B06

> <Concentration_(mM)>
2.5

> <IC50_(µM)>
33

> <Yeast_Active?>
-

> <Pubchem_CID>
1275205

$$$$
