
  -ISIS-  08130814242D

 19 20  0  0  0  0  0  0  0  0999 V2000
    5.0417   -3.5917    0.0000 S   0  0  3  0  0  0  0  0  0  0  0  0
    5.7667   -3.1875    0.0000 N   0  0  0  0  0  0  0  0  0  0  0  0
    6.4875   -3.6125    0.0000 C   0  0  0  0  0  0  0  0  0  0  0  0
    4.3167   -4.0042    0.0000 C   0  0  0  0  0  0  0  0  0  0  0  0
    7.2000   -3.2000    0.0000 N   0  0  0  0  0  0  0  0  0  0  0  0
    6.4875   -4.4417    0.0000 N   0  0  0  0  0  0  0  0  0  0  0  0
    5.0500   -4.2792    0.0000 O   0  0  0  0  0  0  0  0  0  0  0  0
    4.6292   -2.8667    0.0000 O   0  0  0  0  0  0  0  0  0  0  0  0
    7.9167   -4.4417    0.0000 C   0  0  0  0  0  0  0  0  0  0  0  0
    4.3042   -4.8292    0.0000 C   0  0  0  0  0  0  0  0  0  0  0  0
    3.6042   -3.5792    0.0000 C   0  0  0  0  0  0  0  0  0  0  0  0
    7.2000   -4.8542    0.0000 C   0  0  0  0  0  0  0  0  0  0  0  0
    7.9167   -3.6125    0.0000 C   0  0  0  0  0  0  0  0  0  0  0  0
    2.8667   -4.8125    0.0000 C   0  0  0  0  0  0  0  0  0  0  0  0
    2.1250   -5.2042    0.0000 N   0  0  0  0  0  0  0  0  0  0  0  0
    2.8792   -3.9875    0.0000 C   0  0  0  0  0  0  0  0  0  0  0  0
    3.5917   -5.2417    0.0000 C   0  0  0  0  0  0  0  0  0  0  0  0
    8.6375   -4.8625    0.0000 O   0  0  0  0  0  0  0  0  0  0  0  0
    8.6292   -5.6917    0.0000 C   0  0  0  0  0  0  0  0  0  0  0  0
  2  1  1  0  0  0  0
  3  2  1  0  0  0  0
  4  1  1  0  0  0  0
  5  3  1  0  0  0  0
  6  3  2  0  0  0  0
  7  1  2  0  0  0  0
  8  1  2  0  0  0  0
  9 12  2  0  0  0  0
 10  4  1  0  0  0  0
 11  4  2  0  0  0  0
 12  6  1  0  0  0  0
 13  5  2  0  0  0  0
 14 16  2  0  0  0  0
 15 14  1  0  0  0  0
 16 11  1  0  0  0  0
 17 10  2  0  0  0  0
 18  9  1  0  0  0  0
 19 18  1  0  0  0  0
 14 17  1  0  0  0  0
 13  9  1  0  0  0  0
M  END
> <#>
85

> <PLATE>
LAT002

> <ROW>
E

> <COL>
2

> <COORD>
E02

> <LATID>
LAT002E02

> <Supplier>
Microsource

> <Suplier_CAT#>
01501155

> <Name>
Sulfameter

> <Concentration_(mM)>
2.5

> <IC50_(µM)>
3.5

> <Yeast_Active?>
-

> <Pubchem_CID>
5326

> <Description>
Antibacterial

$$$$
