
  -ISIS-  08130814242D

  8  7  0  0  0  0  0  0  0  0999 V2000
    4.5611   -3.9744    0.0000 O   0  5  0  0  0  0  0  0  0  0  0  0
    5.6436   -3.3494    0.0000 C   0  0  0  0  0  0  0  0  0  0  0  0
    5.6436   -2.0994    0.0000 O   0  0  0  0  0  0  0  0  0  0  0  0
    6.7262   -3.9744    0.0000 C   0  0  0  0  0  0  0  0  0  0  0  0
    7.8087   -3.3494    0.0000 N   0  3  3  0  0  0  0  0  0  0  0  0
    7.1837   -2.2668    0.0000 C   0  0  0  0  0  0  0  0  0  0  0  0
    8.8912   -2.7244    0.0000 C   0  0  0  0  0  0  0  0  0  0  0  0
    8.4337   -4.4319    0.0000 C   0  0  0  0  0  0  0  0  0  0  0  0
  1  2  1  0  0  0  0
  2  3  2  0  0  0  0
  2  4  1  0  0  0  0
  4  5  1  0  0  0  0
  5  6  1  0  0  0  0
  5  7  1  0  0  0  0
  5  8  1  0  0  0  0
M  CHG  2   1  -1   5   1
M  END
> <#>
293

> <PLATE>
LAT004

> <ROW>
E

> <COL>
8

> <COORD>
E08

> <LATID>
LAT004E08

> <Supplier>
Sigma

> <Suplier_CAT#>
B-2629

> <Name>
Betain

> <Concentration_(mM)>
2.5

> <IC50_(µM)>
inactive

> <Yeast_Active?>
-

> <Pubchem_CID>
247

$$$$
