
  -ISIS-  08130814242D

 18 19  0  0  0  0  0  0  0  0999 V2000
    3.5875   -2.2375    0.0000 C   0  0  0  0  0  0  0  0  0  0  0  0
    4.2375   -1.8542    0.0000 C   0  0  0  0  0  0  0  0  0  0  0  0
    5.5292   -1.8542    0.0000 N   0  0  0  0  0  0  0  0  0  0  0  0
    2.9375   -3.3542    0.0000 N   0  0  0  0  0  0  0  0  0  0  0  0
    2.9292   -1.8542    0.0000 C   0  0  0  0  0  0  0  0  0  0  0  0
    4.8792   -2.2375    0.0000 N   0  0  0  0  0  0  0  0  0  0  0  0
    4.2375   -1.1042    0.0000 O   0  0  0  0  0  0  0  0  0  0  0  0
    8.1292   -1.8667    0.0000 N   0  0  0  0  0  0  0  0  0  0  0  0
    6.1792   -2.2375    0.0000 C   0  0  0  0  0  0  0  0  0  0  0  0
    6.8292   -1.8542    0.0000 C   0  0  0  0  0  0  0  0  0  0  0  0
    3.5792   -2.9875    0.0000 C   0  0  0  0  0  0  0  0  0  0  0  0
    2.2792   -2.2375    0.0000 C   0  0  0  0  0  0  0  0  0  0  0  0
    1.6292   -1.8542    0.0000 Br  0  0  0  0  0  0  0  0  0  0  0  0
    7.4792   -2.2375    0.0000 C   0  0  0  0  0  0  0  0  0  0  0  0
    2.2792   -2.9875    0.0000 C   0  0  0  0  0  0  0  0  0  0  0  0
    8.1292   -1.1167    0.0000 C   0  0  0  0  0  0  0  0  0  0  0  0
    6.8292   -1.1042    0.0000 C   0  0  0  0  0  0  0  0  0  0  0  0
    7.4792   -0.7375    0.0000 C   0  0  0  0  0  0  0  0  0  0  0  0
  2  1  1  0  0  0  0
  3  6  1  0  0  0  0
  4 11  1  0  0  0  0
  5  1  1  0  0  0  0
  6  2  1  0  0  0  0
  7  2  2  0  0  0  0
  8 14  2  0  0  0  0
  9  3  2  0  0  0  0
 10  9  1  0  0  0  0
 11  1  2  0  0  0  0
 12  5  2  0  0  0  0
 13 12  1  0  0  0  0
 14 10  1  0  0  0  0
 15  4  2  0  0  0  0
 16 18  2  0  0  0  0
 17 10  2  0  0  0  0
 18 17  1  0  0  0  0
 15 12  1  0  0  0  0
 16  8  1  0  0  0  0
M  END
> <#>
1615

> <PLATE>
LAT021

> <ROW>
G

> <COL>
3

> <COORD>
G03

> <LATID>
LAT021G03

> <Supplier>
Chembridge

> <Suplier_CAT#>
5231935

> <Name>
Novel

> <Concentration_(mM)>
2.5

> <IC50_(µM)>
>100

> <Yeast_Active?>
-

> <Pubchem_CID>
773021

$$$$
