
  -ISIS-  08130814242D

 21 22  0  0  0  0  0  0  0  0999 V2000
   -1.7125   -0.0292    0.0000 N   0  0  3  0  0  0  0  0  0  0  0  0
   -2.1125   -0.3167    0.0000 C   0  0  0  0  0  0  0  0  0  0  0  0
   -1.3125   -0.3167    0.0000 C   0  0  0  0  0  0  0  0  0  0  0  0
   -1.4625   -0.8000    0.0000 C   0  0  0  0  0  0  0  0  0  0  0  0
   -1.9708   -0.8000    0.0000 S   0  0  0  0  0  0  0  0  0  0  0  0
   -1.1708   -1.2000    0.0000 C   0  0  0  0  0  0  0  0  0  0  0  0
    0.2792   -1.0167    0.0000 C   0  0  0  0  0  0  0  0  0  0  0  0
   -0.0125   -0.6500    0.0000 C   0  0  0  0  0  0  0  0  0  0  0  0
    0.1000   -1.4667    0.0000 C   0  0  0  0  0  0  0  0  0  0  0  0
   -0.6833   -1.1500    0.0000 C   0  0  0  0  0  0  0  0  0  0  0  0
   -2.5625   -0.1667    0.0000 S   0  0  0  0  0  0  0  0  0  0  0  0
   -0.8458   -0.1500    0.0000 O   0  0  0  0  0  0  0  0  0  0  0  0
   -0.3833   -1.5292    0.0000 C   0  0  0  0  0  0  0  0  0  0  0  0
   -0.4958   -0.7000    0.0000 C   0  0  0  0  0  0  0  0  0  0  0  0
   -1.7125    0.4458    0.0000 C   0  0  0  0  0  0  0  0  0  0  0  0
    0.7542   -0.9542    0.0000 O   0  0  0  0  0  0  0  0  0  0  0  0
    0.1542   -0.2000    0.0000 O   0  0  0  0  0  0  0  0  0  0  0  0
    0.3792   -1.8542    0.0000 O   0  0  0  0  0  0  0  0  0  0  0  0
    0.6292   -0.1500    0.0000 C   0  0  0  0  0  0  0  0  0  0  0  0
    0.2000   -2.3000    0.0000 C   0  0  0  0  0  0  0  0  0  0  0  0
   -2.1208    0.6833    0.0000 C   0  0  0  0  0  0  0  0  0  0  0  0
  2  1  1  0  0  0  0
  3  1  1  0  0  0  0
  4  3  1  0  0  0  0
  5  2  1  0  0  0  0
  6  4  2  0  0  0  0
  7  8  1  0  0  0  0
  8 14  2  0  0  0  0
  9 13  1  0  0  0  0
 10  6  1  0  0  0  0
 11  2  2  0  0  0  0
 12  3  2  0  0  0  0
 13 10  2  0  0  0  0
 14 10  1  0  0  0  0
 15  1  1  0  0  0  0
 16  7  1  0  0  0  0
 17  8  1  0  0  0  0
 18  9  1  0  0  0  0
 19 17  1  0  0  0  0
 20 18  1  0  0  0  0
 21 15  1  0  0  0  0
  5  4  1  0  0  0  0
  7  9  2  0  0  0  0
M  END
> <#>
2017

> <PLATE>
LAT026

> <ROW>
A

> <COL>
4

> <COORD>
A04

> <LATID>
LAT026A04

> <Supplier>
Chembridge

> <Suplier_CAT#>
5666996

> <Sec_Name>
209_C03

> <Concentration_(mM)>
2.5

> <IC50_(µM)>
inactive

> <Yeast_Active?>
-

> <Pubchem_CID>
1238542

$$$$
