
  -ISIS-  08130814242D

 22 22  0  0  0  0  0  0  0  0999 V2000
    3.1875   -3.2417    0.0000 C   0  0  0  0  0  0  0  0  0  0  0  0
    2.3625   -1.8167    0.0000 C   0  0  0  0  0  0  0  0  0  0  0  0
    3.6000   -2.5292    0.0000 C   0  0  0  0  0  0  0  0  0  0  0  0
    3.1875   -1.8167    0.0000 C   0  0  0  0  0  0  0  0  0  0  0  0
    2.3625   -3.2417    0.0000 C   0  0  0  0  0  0  0  0  0  0  0  0
    1.9542   -2.5292    0.0000 C   0  0  0  0  0  0  0  0  0  0  0  0
    5.6542   -3.2417    0.0000 C   0  0  0  0  0  0  0  0  0  0  0  0
    4.4167   -2.5292    0.0000 O   0  0  0  0  0  0  0  0  0  0  0  0
    6.0625   -2.5250    0.0000 O   0  0  0  0  0  0  0  0  0  0  0  0
    6.0667   -3.9542    0.0000 O   0  0  0  0  0  0  0  0  0  0  0  0
    4.8292   -3.2417    0.0000 C   0  0  0  0  0  0  0  0  0  0  0  0
    3.6000   -1.1042    0.0000 Cl  0  0  0  0  0  0  0  0  0  0  0  0
    1.1292   -2.5292    0.0000 Cl  0  0  0  0  0  0  0  0  0  0  0  0
    1.9542   -3.9542    0.0000 Cl  0  0  0  0  0  0  0  0  0  0  0  0
    6.8875   -3.9542    0.0000 C   0  0  3  0  0  0  0  0  0  0  0  0
    7.3000   -4.6667    0.0000 C   0  0  0  0  0  0  0  0  0  0  0  0
    9.7667   -6.0917    0.0000 C   0  0  0  0  0  0  0  0  0  0  0  0
    7.2917   -3.2375    0.0000 C   0  0  0  0  0  0  0  0  0  0  0  0
    9.3542   -5.3792    0.0000 C   0  0  0  0  0  0  0  0  0  0  0  0
    8.1167   -4.6667    0.0000 C   0  0  0  0  0  0  0  0  0  0  0  0
    8.5292   -5.3792    0.0000 C   0  0  0  0  0  0  0  0  0  0  0  0
   10.5792   -6.0917    0.0000 C   0  0  0  0  0  0  0  0  0  0  0  0
  2  6  2  0  0  0  0
  3  1  1  0  0  0  0
  4  3  2  0  0  0  0
  5  1  2  0  0  0  0
  6  5  1  0  0  0  0
  7 11  1  0  0  0  0
  8  3  1  0  0  0  0
  9  7  2  0  0  0  0
 10  7  1  0  0  0  0
 11  8  1  0  0  0  0
 12  4  1  0  0  0  0
 13  6  1  0  0  0  0
 14  5  1  0  0  0  0
 15 10  1  0  0  0  0
 16 15  1  0  0  0  0
 17 19  1  0  0  0  0
 18 15  1  0  0  0  0
 19 21  1  0  0  0  0
 20 16  1  0  0  0  0
 21 20  1  0  0  0  0
 22 17  1  0  0  0  0
  4  2  1  0  0  0  0
M  END
> <#>
191

> <PLATE>
LAT003

> <ROW>
G

> <COL>
5

> <COORD>
G05

> <LATID>
LAT003G05

> <Supplier>
Microsource

> <Suplier_CAT#>
00330049

> <Name>
2,4,5-Trichlorophenoxyacetic Acid, Isooctyl Ester

> <Concentration_(mM)>
2.5

> <IC50_(µM)>
3

> <Yeast_Active?>
-

> <Pubchem_CID>
1481

> <Description>
Herbicide

> <Comment>
Auxin agonist

$$$$
