
  -ISIS-  08130814242D

 35 38  0  0  0  0  0  0  0  0999 V2000
    0.9000    1.0333    0.0000 C   0  0  0  0  0  0  0  0  0  0  0  0
   -0.1000    1.6208    0.0000 C   0  0  0  0  0  0  0  0  0  0  0  0
    0.5667    1.6208    0.0000 C   0  0  3  0  0  0  0  0  0  0  0  0
   -0.4458    1.0333    0.0000 C   0  0  0  0  0  0  0  0  0  0  0  0
    0.5667    0.4458    0.0000 C   0  0  0  0  0  0  0  0  0  0  0  0
   -0.1000    0.4458    0.0000 N   0  0  0  0  0  0  0  0  0  0  0  0
   -0.4458    2.1958    0.0000 C   0  0  0  0  0  0  0  0  0  0  0  0
    1.1542    2.6333    0.0000 C   0  0  0  0  0  0  0  0  0  0  0  0
    1.5792    1.0333    0.0000 C   0  0  0  0  0  0  0  0  0  0  0  0
   -1.1000    1.0333    0.0000 C   0  0  0  0  0  0  0  0  0  0  0  0
   -1.4500    1.6208    0.0000 C   0  0  3  0  0  0  0  0  0  0  0  0
   -1.1000    2.1958    0.0000 C   0  0  0  0  0  0  0  0  0  0  0  0
    0.8375    3.2208    0.0000 C   0  0  0  0  0  0  0  0  0  0  0  0
    1.1542    3.7833    0.0000 C   0  0  0  0  0  0  0  0  0  0  0  0
   -2.1208    1.6208    0.0000 C   0  0  0  0  0  0  0  0  0  0  0  0
   -0.1208    2.7708    0.0000 O   0  0  0  0  0  0  0  0  0  0  0  0
    1.8375    2.6333    0.0000 C   0  0  0  0  0  0  0  0  0  0  0  0
    1.8375    3.7833    0.0000 C   0  0  0  0  0  0  0  0  0  0  0  0
    1.9042    1.6208    0.0000 O   0  0  0  0  0  0  0  0  0  0  0  0
    2.1542    3.2208    0.0000 C   0  0  0  0  0  0  0  0  0  0  0  0
   -2.4625    1.0333    0.0000 C   0  0  0  0  0  0  0  0  0  0  0  0
   -2.4625    2.1958    0.0000 C   0  0  0  0  0  0  0  0  0  0  0  0
    1.9042    0.4125    0.0000 O   0  0  0  0  0  0  0  0  0  0  0  0
   -3.4708    1.6208    0.0000 C   0  0  0  0  0  0  0  0  0  0  0  0
    0.9167   -0.1375    0.0000 C   0  0  0  0  0  0  0  0  0  0  0  0
    0.7875    4.3417    0.0000 O   0  0  0  0  0  0  0  0  0  0  0  0
   -3.1333    1.0333    0.0000 C   0  0  0  0  0  0  0  0  0  0  0  0
   -3.1333    2.1958    0.0000 C   0  0  0  0  0  0  0  0  0  0  0  0
   -4.1583    1.6333    0.0000 Cl  0  0  0  0  0  0  0  0  0  0  0  0
    2.2167    4.3417    0.0000 O   0  0  0  0  0  0  0  0  0  0  0  0
    2.9000    4.3042    0.0000 C   0  0  0  0  0  0  0  0  0  0  0  0
    2.5792    0.4125    0.0000 C   0  0  0  0  0  0  0  0  0  0  0  0
    1.1042    4.9667    0.0000 C   0  0  0  0  0  0  0  0  0  0  0  0
    3.2667    4.8792    0.0000 C   0  0  0  0  0  0  0  0  0  0  0  0
    3.9542    4.8375    0.0000 C   0  0  0  0  0  0  0  0  0  0  0  0
  2  3  1  0  0  0  0
  3  1  1  0  0  0  0
  4  6  1  0  0  0  0
  5  1  2  0  0  0  0
  6  5  1  0  0  0  0
  7  2  1  0  0  0  0
  8  3  1  0  0  0  0
  9  1  1  0  0  0  0
 10  4  1  0  0  0  0
 11 10  1  0  0  0  0
 12  7  1  0  0  0  0
 13  8  1  0  0  0  0
 14 13  2  0  0  0  0
 15 11  1  0  0  0  0
 16  7  2  0  0  0  0
 17  8  2  0  0  0  0
 18 20  2  0  0  0  0
 19  9  2  0  0  0  0
 20 17  1  0  0  0  0
 21 15  1  0  0  0  0
 22 15  2  0  0  0  0
 23  9  1  0  0  0  0
 24 28  2  0  0  0  0
 25  5  1  0  0  0  0
 26 14  1  0  0  0  0
 27 21  2  0  0  0  0
 28 22  1  0  0  0  0
 29 24  1  0  0  0  0
 30 18  1  0  0  0  0
 31 30  1  0  0  0  0
 32 23  1  0  0  0  0
 33 26  1  0  0  0  0
 34 31  1  0  0  0  0
 35 34  1  0  0  0  0
  2  4  2  0  0  0  0
 12 11  1  0  0  0  0
 14 18  1  0  0  0  0
 27 24  1  0  0  0  0
M  END
> <#>
883

> <PLATE>
LAT012

> <ROW>
C

> <COL>
2

> <COORD>
C02

> <LATID>
LAT012C02

> <Supplier>
Chembridge

> <Suplier_CAT#>
5706100

> <Name>
Novel

> <Sec_Name>
224_H05

> <Concentration_(mM)>
2.5

> <IC50_(µM)>
>100

> <Yeast_Active?>
-

> <Pubchem_CID>
NULL

$$$$
