
  -ISIS-  08130814242D

 27 30  0  0  0  0  0  0  0  0999 V2000
   -2.5833   -1.3292    0.0000 C   0  0  0  0  0  0  0  0  0  0  0  0
   -3.3833   -1.7875    0.0000 C   0  0  0  0  0  0  0  0  0  0  0  0
   -2.5833   -0.4042    0.0000 C   0  0  3  0  0  0  0  0  0  0  0  0
   -1.7833   -1.8042    0.0000 C   0  0  0  0  0  0  0  0  0  0  0  0
   -4.1833   -1.3292    0.0000 O   0  0  0  0  0  0  0  0  0  0  0  0
   -3.3833    0.0500    0.0000 C   0  0  0  0  0  0  0  0  0  0  0  0
   -1.7833    0.0708    0.0000 C   0  0  0  0  0  0  0  0  0  0  0  0
   -4.1833   -0.4042    0.0000 C   0  0  0  0  0  0  0  0  0  0  0  0
   -1.7833    0.9958    0.0000 C   0  0  0  0  0  0  0  0  0  0  0  0
   -3.4000   -2.7292    0.0000 C   0  0  0  0  0  0  0  0  0  0  0  0
   -2.6000   -3.1875    0.0000 C   0  0  3  0  0  0  0  0  0  0  0  0
   -1.8000   -2.7042    0.0000 C   0  0  0  0  0  0  0  0  0  0  0  0
   -2.5625    1.4500    0.0000 C   0  0  0  0  0  0  0  0  0  0  0  0
   -0.9833   -1.4000    0.0000 O   0  0  0  0  0  0  0  0  0  0  0  0
   -0.9833    1.4500    0.0000 O   0  0  0  0  0  0  0  0  0  0  0  0
   -2.5625    2.3708    0.0000 C   0  0  0  0  0  0  0  0  0  0  0  0
   -3.2000    1.1125    0.0000 C   0  0  0  0  0  0  0  0  0  0  0  0
   -4.1625    2.3708    0.0000 C   0  0  0  0  0  0  0  0  0  0  0  0
   -3.9833    1.5958    0.0000 C   0  0  0  0  0  0  0  0  0  0  0  0
   -3.3625    2.8333    0.0000 C   0  0  0  0  0  0  0  0  0  0  0  0
   -5.0208    2.6458    0.0000 O   0  0  0  0  0  0  0  0  0  0  0  0
   -3.3833    0.9708    0.0000 C   0  0  0  0  0  0  0  0  0  0  0  0
   -4.9833    0.0500    0.0000 C   0  0  0  0  0  0  0  0  0  0  0  0
   -2.6000   -4.0875    0.0000 C   0  0  0  0  0  0  0  0  0  0  0  0
   -3.2333   -3.9792    0.0000 C   0  0  0  0  0  0  0  0  0  0  0  0
   -4.1833    1.4333    0.0000 C   0  0  0  0  0  0  0  0  0  0  0  0
   -4.9833    0.9708    0.0000 C   0  0  0  0  0  0  0  0  0  0  0  0
  2  1  2  0  0  0  0
  3  1  1  0  0  0  0
  4  1  1  0  0  0  0
  5  2  1  0  0  0  0
  6  3  1  0  0  0  0
  7  3  1  0  0  0  0
  8  6  1  0  0  0  0
  9  7  1  0  0  0  0
 10  2  1  0  0  0  0
 11 12  1  0  0  0  0
 12  4  1  0  0  0  0
 13  9  1  0  0  0  0
 14  4  2  0  0  0  0
 15  9  2  0  0  0  0
 16 13  1  0  0  0  0
 17 13  2  0  0  0  0
 18 19  2  0  0  0  0
 19 17  1  0  0  0  0
 20 16  2  0  0  0  0
 21 18  1  0  0  0  0
 22  6  2  0  0  0  0
 23  8  2  0  0  0  0
 24 11  1  0  0  0  0
 25 11  1  0  0  0  0
 26 22  1  0  0  0  0
 27 26  2  0  0  0  0
 11 10  1  0  0  0  0
  5  8  1  0  0  0  0
 23 27  1  0  0  0  0
 20 18  1  0  0  0  0
M  END
> <#>
1169

> <PLATE>
LAT015

> <ROW>
A

> <COL>
8

> <COORD>
A08

> <LATID>
LAT015A08

> <Supplier>
Chembridge

> <Suplier_CAT#>
5739184

> <Name>
Novel

> <Sec_Name>
233_B06

> <Concentration_(mM)>
2.5

> <IC50_(µM)>
20

> <Yeast_Active?>
-

> <Pubchem_CID>
1238941

$$$$
