
  -ISIS-  08130814242D

 23 25  0  0  0  0  0  0  0  0999 V2000
   10.0228   -3.9593    0.0000 C   0  0  0  0  0  0  0  0  0  0  0  0
    7.6680   -4.1283    0.0000 N   0  0  0  0  0  0  0  0  0  0  0  0
    8.5299   -4.3593    0.0000 C   0  0  0  0  0  0  0  0  0  0  0  0
    9.1609   -3.7283    0.0000 C   0  0  0  0  0  0  0  0  0  0  0  0
   10.6537   -3.3283    0.0000 O   0  0  0  0  0  0  0  0  0  0  0  0
   10.2537   -4.8212    0.0000 O   0  0  0  0  0  0  0  0  0  0  0  0
    7.0370   -4.7593    0.0000 C   0  0  0  0  0  0  0  0  0  0  0  0
    7.2225   -5.6321    0.0000 O   0  0  0  0  0  0  0  0  0  0  0  0
    6.1884   -4.4836    0.0000 O   0  0  0  0  0  0  0  0  0  0  0  0
    6.0028   -3.6107    0.0000 C   0  0  0  0  0  0  0  0  0  0  0  0
    5.1542   -3.3350    0.0000 C   0  0  3  0  0  0  0  0  0  0  0  0
    4.4323   -3.8595    0.0000 C   0  0  0  0  0  0  0  0  0  0  0  0
    4.3390   -4.7469    0.0000 C   0  0  0  0  0  0  0  0  0  0  0  0
    3.5238   -5.1099    0.0000 C   0  0  0  0  0  0  0  0  0  0  0  0
    2.8019   -4.5854    0.0000 C   0  0  0  0  0  0  0  0  0  0  0  0
    2.8952   -3.6979    0.0000 C   0  0  0  0  0  0  0  0  0  0  0  0
    3.7104   -3.3350    0.0000 C   0  0  0  0  0  0  0  0  0  0  0  0
    3.9861   -2.4863    0.0000 C   0  0  0  0  0  0  0  0  0  0  0  0
    3.5400   -1.7136    0.0000 C   0  0  0  0  0  0  0  0  0  0  0  0
    3.9861   -0.9408    0.0000 C   0  0  0  0  0  0  0  0  0  0  0  0
    4.8785   -0.9408    0.0000 C   0  0  0  0  0  0  0  0  0  0  0  0
    5.3246   -1.7136    0.0000 C   0  0  0  0  0  0  0  0  0  0  0  0
    4.8785   -2.4863    0.0000 C   0  0  0  0  0  0  0  0  0  0  0  0
  2  3  1  0  0  0  0
  3  4  1  0  0  0  0
  1  4  1  0  0  0  0
  1  5  2  0  0  0  0
  1  6  1  0  0  0  0
  7  8  2  0  0  0  0
  7  9  1  0  0  0  0
  9 10  1  0  0  0  0
 10 11  1  0  0  0  0
 11 12  1  0  0  0  0
 12 13  2  0  0  0  0
 13 14  1  0  0  0  0
 14 15  2  0  0  0  0
 15 16  1  0  0  0  0
 16 17  2  0  0  0  0
 17 18  1  0  0  0  0
 18 19  2  0  0  0  0
 19 20  1  0  0  0  0
 20 21  2  0  0  0  0
 21 22  1  0  0  0  0
 22 23  2  0  0  0  0
 11 23  1  0  0  0  0
 18 23  1  0  0  0  0
 12 17  1  0  0  0  0
  2  7  1  0  0  0  0
M  END
> <#>
483

> <PLATE>
LAT007

> <ROW>
C

> <COL>
2

> <COORD>
C02

> <LATID>
LAT007C02

> <Supplier>
Fluka

> <Suplier_CAT#>
47587

> <Name>
Fmoc-Beta-Alanine

> <Concentration_(mM)>
2.5

> <IC50_(µM)>
>100

> <Yeast_Active?>
-

> <Pubchem_CID>
2724630

$$$$
