
  -ISIS-  08130814242D

 18 19  0  0  0  0  0  0  0  0999 V2000
    2.5500   -1.6500    0.0000 C   0  0  0  0  0  0  0  0  0  0  0  0
    2.7875   -0.7667    0.0000 C   0  0  0  0  0  0  0  0  0  0  0  0
    0.5500   -2.9667    0.0000 C   0  0  0  0  0  0  0  0  0  0  0  0
    3.6667   -0.5292    0.0000 C   0  0  0  0  0  0  0  0  0  0  0  0
   -0.0708   -2.3292    0.0000 O   0  0  0  0  0  0  0  0  0  0  0  0
    1.6875   -1.8875    0.0000 N   0  0  0  0  0  0  0  0  0  0  0  0
    0.1292   -3.7667    0.0000 C   0  0  0  0  0  0  0  0  0  0  0  0
   -0.8708   -2.7042    0.0000 C   0  0  0  0  0  0  0  0  0  0  0  0
   -0.7708   -3.6042    0.0000 C   0  0  0  0  0  0  0  0  0  0  0  0
    3.1875   -2.2875    0.0000 O   0  0  0  0  0  0  0  0  0  0  0  0
    1.4292   -2.7500    0.0000 C   0  0  0  0  0  0  0  0  0  0  0  0
    3.9042    0.3500    0.0000 C   0  0  0  0  0  0  0  0  0  0  0  0
    4.4042    2.0958    0.0000 C   0  0  0  0  0  0  0  0  0  0  0  0
    4.6500    2.9708    0.0000 F   0  0  0  0  0  0  0  0  0  0  0  0
    3.2875    1.0125    0.0000 C   0  0  0  0  0  0  0  0  0  0  0  0
    4.7875    0.5958    0.0000 C   0  0  0  0  0  0  0  0  0  0  0  0
    3.5292    1.8708    0.0000 C   0  0  0  0  0  0  0  0  0  0  0  0
    5.0292    1.4500    0.0000 C   0  0  0  0  0  0  0  0  0  0  0  0
  2  1  1  0  0  0  0
  3 11  1  0  0  0  0
  4  2  2  0  0  0  0
  5  3  1  0  0  0  0
  6  1  1  0  0  0  0
  7  3  2  0  0  0  0
  8  5  1  0  0  0  0
  9  7  1  0  0  0  0
 10  1  2  0  0  0  0
 11  6  1  0  0  0  0
 12  4  1  0  0  0  0
 13 18  1  0  0  0  0
 14 13  1  0  0  0  0
 15 12  2  0  0  0  0
 16 12  1  0  0  0  0
 17 15  1  0  0  0  0
 18 16  2  0  0  0  0
  8  9  2  0  0  0  0
 17 13  2  0  0  0  0
M  END
> <#>
914

> <PLATE>
LAT012

> <ROW>
B

> <COL>
6

> <COORD>
B06

> <LATID>
LAT012B06

> <Supplier>
Chembridge

> <Suplier_CAT#>
5688681

> <Name>
Novel

> <Sec_Name>
220_B05

> <Concentration_(mM)>
2.5

> <IC50_(µM)>
14

> <Yeast_Active?>
-

> <Pubchem_CID>
773741

$$$$
