
  -ISIS-  08130814242D

 18 19  0  0  0  0  0  0  0  0999 V2000
    2.0542    1.4833    0.0000 S   0  0  0  0  0  0  0  0  0  0  0  0
    2.8375    1.7000    0.0000 C   0  0  0  0  0  0  0  0  0  0  0  0
    3.2542    1.0458    0.0000 N   0  0  0  0  0  0  0  0  0  0  0  0
    2.7542    0.4000    0.0000 N   0  0  0  0  0  0  0  0  0  0  0  0
    2.0167    0.7000    0.0000 C   0  0  0  0  0  0  0  0  0  0  0  0
   -1.2208   -0.9542    0.0000 C   0  0  0  0  0  0  0  0  0  0  0  0
   -1.8625   -1.4792    0.0000 C   0  0  0  0  0  0  0  0  0  0  0  0
   -1.3625   -0.1792    0.0000 C   0  0  0  0  0  0  0  0  0  0  0  0
    3.1167    2.4625    0.0000 N   0  0  0  0  0  0  0  0  0  0  0  0
   -2.1000    0.1208    0.0000 C   0  0  0  0  0  0  0  0  0  0  0  0
   -2.6000   -1.1792    0.0000 C   0  0  0  0  0  0  0  0  0  0  0  0
   -0.4625   -1.2375    0.0000 Cl  0  0  0  0  0  0  0  0  0  0  0  0
   -2.7208   -0.4000    0.0000 C   0  0  0  0  0  0  0  0  0  0  0  0
   -3.2458   -1.6792    0.0000 Cl  0  0  0  0  0  0  0  0  0  0  0  0
   -0.7000    0.3208    0.0000 O   0  0  0  0  0  0  0  0  0  0  0  0
    1.4000    0.2000    0.0000 C   0  0  0  0  0  0  0  0  0  0  0  0
    0.0375    0.0000    0.0000 C   0  0  0  0  0  0  0  0  0  0  0  0
    0.6792    0.5000    0.0000 C   0  0  0  0  0  0  0  0  0  0  0  0
  2  1  1  0  0  0  0
  3  2  2  0  0  0  0
  4  5  2  0  0  0  0
  5  1  1  0  0  0  0
  6  8  1  0  0  0  0
  7  6  2  0  0  0  0
  8 15  1  0  0  0  0
  9  2  1  0  0  0  0
 10  8  2  0  0  0  0
 11 13  2  0  0  0  0
 12  6  1  0  0  0  0
 13 10  1  0  0  0  0
 14 11  1  0  0  0  0
 15 17  1  0  0  0  0
 16  5  1  0  0  0  0
 17 18  1  0  0  0  0
 18 16  1  0  0  0  0
  4  3  1  0  0  0  0
 11  7  1  0  0  0  0
M  END
> <#>
597

> <PLATE>
LAT008

> <ROW>
E

> <COL>
6

> <COORD>
E06

> <LATID>
LAT008E06

> <Supplier>
Chembridge

> <Suplier_CAT#>
5482792

> <Name>
Novel

> <Sec_Name>
141_H04

> <Concentration_(mM)>
2.5

> <IC50_(µM)>
33

> <Yeast_Active?>
-

> <Pubchem_CID>
1914316

$$$$
