
  -ISIS-  08130814242D

 20 21  0  0  0  0  0  0  0  0999 V2000
   -1.8333    0.3958    0.0000 N   0  3  0  0  0  0  0  0  0  0  0  0
   -0.6958   -0.7500    0.0000 C   0  0  0  0  0  0  0  0  0  0  0  0
   -1.5708   -0.5042    0.0000 C   0  0  0  0  0  0  0  0  0  0  0  0
   -0.0500   -0.0875    0.0000 C   0  0  0  0  0  0  0  0  0  0  0  0
    0.8292   -0.3000    0.0000 N   0  0  0  0  0  0  0  0  0  0  0  0
   -1.1958    1.0500    0.0000 O   0  5  0  0  0  0  0  0  0  0  0  0
   -2.7333    0.6000    0.0000 O   0  0  0  0  0  0  0  0  0  0  0  0
    2.9667    0.8125    0.0000 N   0  0  0  0  0  0  0  0  0  0  0  0
   -2.2125   -1.1667    0.0000 C   0  0  0  0  0  0  0  0  0  0  0  0
   -0.3125    0.8125    0.0000 O   0  0  0  0  0  0  0  0  0  0  0  0
    1.4667    0.3625    0.0000 C   0  0  0  0  0  0  0  0  0  0  0  0
    2.3500    0.1500    0.0000 C   0  0  0  0  0  0  0  0  0  0  0  0
   -0.4500   -1.6167    0.0000 C   0  0  0  0  0  0  0  0  0  0  0  0
   -1.0958   -2.2792    0.0000 C   0  0  0  0  0  0  0  0  0  0  0  0
    3.8500    0.6000    0.0000 C   0  0  0  0  0  0  0  0  0  0  0  0
   -1.9500   -2.0375    0.0000 C   0  0  0  0  0  0  0  0  0  0  0  0
   -3.1333   -0.9542    0.0000 C   0  0  0  0  0  0  0  0  0  0  0  0
    2.6042   -0.7167    0.0000 C   0  0  0  0  0  0  0  0  0  0  0  0
    4.1292   -0.3000    0.0000 C   0  0  0  0  0  0  0  0  0  0  0  0
    3.4875   -0.9542    0.0000 C   0  0  0  0  0  0  0  0  0  0  0  0
  2  3  1  0  0  0  0
  3  1  1  0  0  0  0
  4  2  1  0  0  0  0
  5  4  1  0  0  0  0
  6  1  1  0  0  0  0
  7  1  2  0  0  0  0
  8 12  1  0  0  0  0
  9  3  2  0  0  0  0
 10  4  2  0  0  0  0
 11  5  1  0  0  0  0
 12 11  1  0  0  0  0
 13  2  2  0  0  0  0
 14 16  2  0  0  0  0
 15  8  2  0  0  0  0
 16  9  1  0  0  0  0
 17  9  1  0  0  0  0
 18 12  2  0  0  0  0
 19 20  2  0  0  0  0
 20 18  1  0  0  0  0
 14 13  1  0  0  0  0
 19 15  1  0  0  0  0
M  CHG  2   1   1   6  -1
M  END
> <#>
1466

> <PLATE>
LAT019

> <ROW>
B

> <COL>
5

> <COORD>
B05

> <LATID>
LAT019B05

> <Supplier>
Chembridge

> <Suplier_CAT#>
7403110

> <Name>
Novel

> <Concentration_(mM)>
2.5

> <IC50_(µM)>
inactive

> <Yeast_Active?>
-

> <Pubchem_CID>
889807

$$$$
