
  -ISIS-  08130814242D

 31 34  0  0  0  0  0  0  0  0999 V2000
   -0.5500   -1.9792    0.0000 C   0  0  0  0  0  0  0  0  0  0  0  0
   -1.9708   -1.9792    0.0000 C   0  0  0  0  0  0  0  0  0  0  0  0
   -1.2625   -1.5792    0.0000 C   0  0  3  0  0  0  0  0  0  0  0  0
   -1.9708   -2.8000    0.0000 C   0  0  0  0  0  0  0  0  0  0  0  0
   -0.5500   -2.8000    0.0000 C   0  0  0  0  0  0  0  0  0  0  0  0
   -1.2625   -3.2167    0.0000 N   0  0  0  0  0  0  0  0  0  0  0  0
   -2.6708   -1.5792    0.0000 C   0  0  0  0  0  0  0  0  0  0  0  0
   -1.2625   -0.0667    0.0000 C   0  0  0  0  0  0  0  0  0  0  0  0
    0.1792   -1.5792    0.0000 C   0  0  0  0  0  0  0  0  0  0  0  0
   -2.6708   -3.2167    0.0000 C   0  0  0  0  0  0  0  0  0  0  0  0
   -3.3958   -2.8000    0.0000 C   0  0  3  0  0  0  0  0  0  0  0  0
   -3.3958   -1.9792    0.0000 C   0  0  0  0  0  0  0  0  0  0  0  0
    0.8667   -1.9792    0.0000 O   0  0  0  0  0  0  0  0  0  0  0  0
   -2.6708   -0.7375    0.0000 O   0  0  0  0  0  0  0  0  0  0  0  0
   -0.5500    0.3458    0.0000 C   0  0  0  0  0  0  0  0  0  0  0  0
    0.1792   -0.7375    0.0000 O   0  0  0  0  0  0  0  0  0  0  0  0
   -0.5500    1.1458    0.0000 C   0  0  0  0  0  0  0  0  0  0  0  0
    1.5875   -1.5792    0.0000 C   0  0  0  0  0  0  0  0  0  0  0  0
    0.1792   -3.2292    0.0000 C   0  0  0  0  0  0  0  0  0  0  0  0
    0.1792    1.5333    0.0000 F   0  0  0  0  0  0  0  0  0  0  0  0
   -1.9708    0.3458    0.0000 C   0  0  0  0  0  0  0  0  0  0  0  0
    2.3000   -2.0167    0.0000 C   0  0  0  0  0  0  0  0  0  0  0  0
   -1.9708    1.1458    0.0000 C   0  0  0  0  0  0  0  0  0  0  0  0
   -3.9125   -3.4375    0.0000 C   0  0  0  0  0  0  0  0  0  0  0  0
   -4.1833   -2.9500    0.0000 C   0  0  0  0  0  0  0  0  0  0  0  0
   -1.2625    1.5625    0.0000 C   0  0  0  0  0  0  0  0  0  0  0  0
    2.2875   -2.8667    0.0000 C   0  0  0  0  0  0  0  0  0  0  0  0
    3.0500   -1.6292    0.0000 C   0  0  0  0  0  0  0  0  0  0  0  0
    3.7667   -2.0542    0.0000 C   0  0  0  0  0  0  0  0  0  0  0  0
    2.9875   -3.3042    0.0000 C   0  0  0  0  0  0  0  0  0  0  0  0
    3.7375   -2.9042    0.0000 C   0  0  0  0  0  0  0  0  0  0  0  0
  2  3  1  0  0  0  0
  3  1  1  0  0  0  0
  4  6  1  0  0  0  0
  5  1  2  0  0  0  0
  6  5  1  0  0  0  0
  7  2  1  0  0  0  0
  8  3  1  0  0  0  0
  9  1  1  0  0  0  0
 10  4  1  0  0  0  0
 11 10  1  0  0  0  0
 12  7  1  0  0  0  0
 13  9  1  0  0  0  0
 14  7  2  0  0  0  0
 15  8  1  0  0  0  0
 16  9  2  0  0  0  0
 17 15  2  0  0  0  0
 18 13  1  0  0  0  0
 19  5  1  0  0  0  0
 20 17  1  0  0  0  0
 21  8  2  0  0  0  0
 22 18  1  0  0  0  0
 23 21  1  0  0  0  0
 24 11  1  0  0  0  0
 25 11  1  0  0  0  0
 26 23  2  0  0  0  0
 27 22  2  0  0  0  0
 28 22  1  0  0  0  0
 29 28  2  0  0  0  0
 30 27  1  0  0  0  0
 31 29  1  0  0  0  0
  4  2  2  0  0  0  0
 11 12  1  0  0  0  0
 17 26  1  0  0  0  0
 30 31  2  0  0  0  0
M  END
> <#>
571

> <PLATE>
LAT008

> <ROW>
C

> <COL>
3

> <COORD>
C03

> <LATID>
LAT008C03

> <Supplier>
Chembridge

> <Suplier_CAT#>
5476839

> <Name>
Novel

> <Sec_Name>
139_E05

> <Concentration_(mM)>
2.5

> <IC50_(µM)>
>100

> <Yeast_Active?>
-

> <Pubchem_CID>
1043583

$$$$
