
  -ISIS-  08130814242D

 35 39  0  0  0  0  0  0  0  0999 V2000
    2.9042   -0.7917    0.0000 C   0  0  0  0  0  0  0  0  0  0  0  0
    4.2167   -0.7917    0.0000 C   0  0  0  0  0  0  0  0  0  0  0  0
    3.5625   -1.1667    0.0000 C   0  0  3  0  0  0  0  0  0  0  0  0
    2.9042   -0.0417    0.0000 C   0  0  0  0  0  0  0  0  0  0  0  0
    4.2167   -0.0417    0.0000 C   0  0  0  0  0  0  0  0  0  0  0  0
    3.5625   -1.9167    0.0000 C   0  0  0  0  0  0  0  0  0  0  0  0
    3.1875   -3.0750    0.0000 C   0  0  0  0  0  0  0  0  0  0  0  0
    3.5625    0.3375    0.0000 O   0  0  0  0  0  0  0  0  0  0  0  0
    0.8125   -4.1292    0.0000 N   0  3  0  0  0  0  0  0  0  0  0  0
    2.2542   -1.1667    0.0000 C   0  0  0  0  0  0  0  0  0  0  0  0
    4.8667   -1.1667    0.0000 C   0  0  0  0  0  0  0  0  0  0  0  0
    2.9542   -2.3625    0.0000 O   0  0  0  0  0  0  0  0  0  0  0  0
    2.7417   -3.6792    0.0000 C   0  0  0  0  0  0  0  0  0  0  0  0
    4.1667   -2.3625    0.0000 C   0  0  0  0  0  0  0  0  0  0  0  0
    2.0000   -3.6042    0.0000 C   0  0  0  0  0  0  0  0  0  0  0  0
    1.5542   -4.2042    0.0000 C   0  0  0  0  0  0  0  0  0  0  0  0
    3.9375   -3.0750    0.0000 C   0  0  0  0  0  0  0  0  0  0  0  0
    2.2542    0.3375    0.0000 C   0  0  0  0  0  0  0  0  0  0  0  0
    4.8667    0.3375    0.0000 C   0  0  0  0  0  0  0  0  0  0  0  0
    5.5167   -0.0417    0.0000 C   0  0  3  0  0  0  0  0  0  0  0  0
    1.6042   -0.0417    0.0000 C   0  0  3  0  0  0  0  0  0  0  0  0
    1.6042   -0.7917    0.0000 C   0  0  0  0  0  0  0  0  0  0  0  0
    5.5167   -0.7917    0.0000 C   0  0  0  0  0  0  0  0  0  0  0  0
    0.5042   -3.4417    0.0000 O   0  5  0  0  0  0  0  0  0  0  0  0
    3.0500   -4.3667    0.0000 C   0  0  0  0  0  0  0  0  0  0  0  0
    0.3750   -4.7375    0.0000 O   0  0  0  0  0  0  0  0  0  0  0  0
    4.8667   -1.9167    0.0000 O   0  0  0  0  0  0  0  0  0  0  0  0
    2.2542   -1.9167    0.0000 O   0  0  0  0  0  0  0  0  0  0  0  0
    1.8667   -4.8917    0.0000 C   0  0  0  0  0  0  0  0  0  0  0  0
    2.6125   -4.9750    0.0000 C   0  0  0  0  0  0  0  0  0  0  0  0
    3.7917   -4.4417    0.0000 Cl  0  0  0  0  0  0  0  0  0  0  0  0
    0.9542    0.3333    0.0000 C   0  0  0  0  0  0  0  0  0  0  0  0
    0.9542   -0.4167    0.0000 C   0  0  0  0  0  0  0  0  0  0  0  0
    6.1667    0.3333    0.0000 C   0  0  0  0  0  0  0  0  0  0  0  0
    5.1417    0.6083    0.0000 C   0  0  0  0  0  0  0  0  0  0  0  0
  2  3  1  0  0  0  0
  3  1  1  0  0  0  0
  4  1  2  0  0  0  0
  5  8  1  0  0  0  0
  6  3  1  0  0  0  0
  7 12  1  0  0  0  0
  8  4  1  0  0  0  0
  9 16  1  0  0  0  0
 10  1  1  0  0  0  0
 11  2  1  0  0  0  0
 12  6  1  0  0  0  0
 13  7  1  0  0  0  0
 14  6  2  0  0  0  0
 15 13  1  0  0  0  0
 16 15  2  0  0  0  0
 17 14  1  0  0  0  0
 18  4  1  0  0  0  0
 19  5  1  0  0  0  0
 20 19  1  0  0  0  0
 21 22  1  0  0  0  0
 22 10  1  0  0  0  0
 23 11  1  0  0  0  0
 24  9  1  0  0  0  0
 25 13  2  0  0  0  0
 26  9  2  0  0  0  0
 27 11  2  0  0  0  0
 28 10  2  0  0  0  0
 29 30  2  0  0  0  0
 30 25  1  0  0  0  0
 31 25  1  0  0  0  0
 32 21  1  0  0  0  0
 33 21  1  0  0  0  0
 34 20  1  0  0  0  0
 35 20  1  0  0  0  0
 18 21  1  0  0  0  0
  2  5  2  0  0  0  0
  7 17  2  0  0  0  0
 23 20  1  0  0  0  0
 16 29  1  0  0  0  0
M  CHG  2   9   1  24  -1
M  END
> <#>
1031

> <PLATE>
LAT013

> <ROW>
G

> <COL>
10

> <COORD>
G10

> <LATID>
LAT013G10

> <Supplier>
Chembridge

> <Suplier_CAT#>
5571819

> <Name>
Nifurazan

> <Sec_Name>
176_B06

> <Concentration_(mM)>
2.5

> <IC50_(µM)>
8.9

> <Yeast_Active?>
+

> <Pubchem_CID>
1102875

$$$$
