
  -ISIS-  08130814242D

 27 29  0  0  0  0  0  0  0  0999 V2000
    6.2000   -1.8500    0.0000 S   0  0  3  0  0  0  0  0  0  0  0  0
    8.6542   -1.8125    0.0000 N   0  0  0  0  0  0  0  0  0  0  0  0
   11.1042   -1.8000    0.0000 C   0  0  0  0  0  0  0  0  0  0  0  0
   -4.8958    0.1208    0.0000 C   0  0  0  0  0  0  0  0  0  0  0  0
    3.7500   -1.8875    0.0000 C   0  0  0  0  0  0  0  0  0  0  0  0
    6.1917    0.6000    0.0000 O   0  0  0  0  0  0  0  0  0  0  0  0
    6.2167   -4.3125    0.0000 O   0  0  0  0  0  0  0  0  0  0  0  0
   -3.6458   -1.9875    0.0000 N   0  0  0  0  0  0  0  0  0  0  0  0
   12.3292   -3.9250    0.0000 N   0  0  0  0  0  0  0  0  0  0  0  0
   12.3042    0.3208    0.0000 N   0  0  0  0  0  0  0  0  0  0  0  0
   -3.6958    2.2708    0.0000 S   0  0  0  0  0  0  0  0  0  0  0  0
   -7.3417    0.1208    0.0000 N   0  0  0  0  0  0  0  0  0  0  0  0
  -12.3292    4.3125    0.0000 N   0  0  0  0  0  0  0  0  0  0  0  0
    2.5542   -4.0542    0.0000 C   0  0  0  0  0  0  0  0  0  0  0  0
    2.5292    0.2083    0.0000 C   0  0  0  0  0  0  0  0  0  0  0  0
   -1.1500   -1.9500    0.0000 C   0  0  0  0  0  0  0  0  0  0  0  0
  -11.0417    2.2125    0.0000 C   0  0  0  0  0  0  0  0  0  0  0  0
   -8.5917    2.2250    0.0000 C   0  0  0  0  0  0  0  0  0  0  0  0
    0.1000   -4.0917    0.0000 C   0  0  0  0  0  0  0  0  0  0  0  0
    0.0542    0.1833    0.0000 C   0  0  0  0  0  0  0  0  0  0  0  0
   16.0000   -1.7917    0.0000 C   0  0  0  0  0  0  0  0  0  0  0  0
   14.7500    0.3333    0.0000 C   0  0  0  0  0  0  0  0  0  0  0  0
   14.7792   -3.9167    0.0000 C   0  0  0  0  0  0  0  0  0  0  0  0
  -14.7875    4.2667    0.0000 C   0  0  0  0  0  0  0  0  0  0  0  0
  -12.2542    0.0958    0.0000 C   0  0  0  0  0  0  0  0  0  0  0  0
  -16.0000    2.1333    0.0000 C   0  0  0  0  0  0  0  0  0  0  0  0
  -14.7125    0.0458    0.0000 C   0  0  0  0  0  0  0  0  0  0  0  0
  2  1  1  0  0  0  0
  3  2  1  0  0  0  0
  4  8  1  0  0  0  0
  5  1  1  0  0  0  0
  6  1  2  0  0  0  0
  7  1  2  0  0  0  0
  8 16  1  0  0  0  0
  9  3  2  0  0  0  0
 10  3  1  0  0  0  0
 11  4  2  0  0  0  0
 12  4  1  0  0  0  0
 13 17  2  0  0  0  0
 14  5  1  0  0  0  0
 15  5  2  0  0  0  0
 16 20  2  0  0  0  0
 17 18  1  0  0  0  0
 18 12  1  0  0  0  0
 19 14  2  0  0  0  0
 20 15  1  0  0  0  0
 21 22  1  0  0  0  0
 22 10  2  0  0  0  0
 23  9  1  0  0  0  0
 24 13  1  0  0  0  0
 25 17  1  0  0  0  0
 26 27  1  0  0  0  0
 27 25  2  0  0  0  0
 19 16  1  0  0  0  0
 23 21  2  0  0  0  0
 26 24  2  0  0  0  0
M  END
> <#>
1433

> <PLATE>
LAT018

> <ROW>
A

> <COL>
11

> <COORD>
A11

> <LATID>
LAT018A11

> <Supplier>
Chembridge

> <Suplier_CAT#>
7819189

> <Name>
Novel

> <Concentration_(mM)>
2.5

> <IC50_(µM)>
83

> <Yeast_Active?>
-

> <Pubchem_CID>
2210397

$$$$
