
  -ISIS-  08130814242D

 19 20  0  0  0  0  0  0  0  0999 V2000
    6.5292   -2.3167    0.0000 S   0  0  3  0  0  0  0  0  0  0  0  0
    6.3250   -3.1125    0.0000 N   0  0  0  0  0  0  0  0  0  0  0  0
    6.9042   -3.6875    0.0000 C   0  0  0  0  0  0  0  0  0  0  0  0
    6.6917   -4.4750    0.0000 N   0  0  0  0  0  0  0  0  0  0  0  0
    7.2750   -5.0542    0.0000 N   0  0  0  0  0  0  0  0  0  0  0  0
    6.7292   -1.5167    0.0000 C   0  0  0  0  0  0  0  0  0  0  0  0
    5.7042   -1.9667    0.0000 O   0  0  0  0  0  0  0  0  0  0  0  0
    7.3292   -2.5250    0.0000 O   0  0  0  0  0  0  0  0  0  0  0  0
    8.0625   -4.8417    0.0000 C   0  0  0  0  0  0  0  0  0  0  0  0
    6.1417   -0.9417    0.0000 C   0  0  0  0  0  0  0  0  0  0  0  0
    7.5250   -1.2917    0.0000 C   0  0  0  0  0  0  0  0  0  0  0  0
    7.7042   -3.4750    0.0000 C   0  0  0  0  0  0  0  0  0  0  0  0
    7.1375    0.0833    0.0000 C   0  0  0  0  0  0  0  0  0  0  0  0
    8.2750   -4.0417    0.0000 C   0  0  0  0  0  0  0  0  0  0  0  0
    7.3292    0.8875    0.0000 N   0  0  0  0  0  0  0  0  0  0  0  0
    7.7292   -0.4917    0.0000 C   0  0  0  0  0  0  0  0  0  0  0  0
    6.3417   -0.1542    0.0000 C   0  0  0  0  0  0  0  0  0  0  0  0
    8.6375   -5.4292    0.0000 O   0  0  0  0  0  0  0  0  0  0  0  0
    9.4292   -5.2292    0.0000 C   0  0  0  0  0  0  0  0  0  0  0  0
  2  1  1  0  0  0  0
  3  2  1  0  0  0  0
  4  3  2  0  0  0  0
  5  4  1  0  0  0  0
  6  1  1  0  0  0  0
  7  1  2  0  0  0  0
  8  1  2  0  0  0  0
  9 14  1  0  0  0  0
 10  6  1  0  0  0  0
 11  6  2  0  0  0  0
 12  3  1  0  0  0  0
 13 16  2  0  0  0  0
 14 12  2  0  0  0  0
 15 13  1  0  0  0  0
 16 11  1  0  0  0  0
 17 10  2  0  0  0  0
 18  9  1  0  0  0  0
 19 18  1  0  0  0  0
 13 17  1  0  0  0  0
  9  5  2  0  0  0  0
M  END
> <#>
91

> <PLATE>
LAT002

> <ROW>
C

> <COL>
3

> <COORD>
C03

> <LATID>
LAT002C03

> <Supplier>
Microsource

> <Suplier_CAT#>
01501156

> <Name>
Sulfamethoxypyridazine

> <Concentration_(mM)>
2.5

> <IC50_(µM)>
4.5

> <Yeast_Active?>
-

> <Pubchem_CID>
5330

> <Description>
Antibacterial

$$$$
