
  -ISIS-  08130814242D

 25 27  0  0  0  0  0  0  0  0999 V2000
   10.8500    0.1083    0.0000 C   0  0  0  0  0  0  0  0  0  0  0  0
    8.2250    1.2958    0.0000 S   0  0  0  0  0  0  0  0  0  0  0  0
   10.5417   -2.7542    0.0000 C   0  0  0  0  0  0  0  0  0  0  0  0
    6.3042   -0.8375    0.0000 C   0  0  0  0  0  0  0  0  0  0  0  0
    7.7667   -3.3625    0.0000 C   0  0  0  0  0  0  0  0  0  0  0  0
   13.4375    1.5833    0.0000 C   0  0  0  0  0  0  0  0  0  0  0  0
   -2.6708   -0.9417    0.0000 C   0  0  0  0  0  0  0  0  0  0  0  0
    3.3042   -0.8667    0.0000 C   0  0  0  0  0  0  0  0  0  0  0  0
    6.3292   -5.9875    0.0000 C   0  0  0  0  0  0  0  0  0  0  0  0
   -1.1583   -3.4875    0.0000 N   0  0  0  0  0  0  0  0  0  0  0  0
   -1.2125    1.6500    0.0000 S   0  0  0  0  0  0  0  0  0  0  0  0
   -5.6208   -0.9417    0.0000 N   0  0  0  0  0  0  0  0  0  0  0  0
    1.8542   -3.4417    0.0000 C   0  0  0  0  0  0  0  0  0  0  0  0
  -11.5917    4.0917    0.0000 N   0  0  0  0  0  0  0  0  0  0  0  0
   16.0000    0.0833    0.0000 O   0  0  0  0  0  0  0  0  0  0  0  0
   12.7542   -4.7292    0.0000 Cl  0  0  0  0  0  0  0  0  0  0  0  0
    3.3667   -6.0292    0.0000 C   0  0  0  0  0  0  0  0  0  0  0  0
  -10.0500    1.5708    0.0000 C   0  0  0  0  0  0  0  0  0  0  0  0
   13.4500    4.5417    0.0000 O   0  0  0  0  0  0  0  0  0  0  0  0
   -7.1042    1.5875    0.0000 C   0  0  0  0  0  0  0  0  0  0  0  0
  -14.5417    4.0292    0.0000 C   0  0  0  0  0  0  0  0  0  0  0  0
  -11.5042   -0.9792    0.0000 C   0  0  0  0  0  0  0  0  0  0  0  0
   10.8875    6.0292    0.0000 C   0  0  0  0  0  0  0  0  0  0  0  0
  -16.0000    1.4833    0.0000 C   0  0  0  0  0  0  0  0  0  0  0  0
  -14.4417   -1.0292    0.0000 C   0  0  0  0  0  0  0  0  0  0  0  0
  2  1  1  0  0  0  0
  3  1  2  0  0  0  0
  4  2  1  0  0  0  0
  5  3  1  0  0  0  0
  6  1  1  0  0  0  0
  7 10  1  0  0  0  0
  8  4  1  0  0  0  0
  9  5  1  0  0  0  0
 10 13  1  0  0  0  0
 11  7  2  0  0  0  0
 12  7  1  0  0  0  0
 13  8  2  0  0  0  0
 14 18  2  0  0  0  0
 15  6  2  0  0  0  0
 16  3  1  0  0  0  0
 17  9  2  0  0  0  0
 18 20  1  0  0  0  0
 19  6  1  0  0  0  0
 20 12  1  0  0  0  0
 21 14  1  0  0  0  0
 22 18  1  0  0  0  0
 23 19  1  0  0  0  0
 24 25  1  0  0  0  0
 25 22  2  0  0  0  0
  4  5  2  0  0  0  0
 17 13  1  0  0  0  0
 24 21  2  0  0  0  0
M  END
> <#>
1511

> <PLATE>
LAT019

> <ROW>
G

> <COL>
10

> <COORD>
G10

> <LATID>
LAT019G10

> <Supplier>
Chembridge

> <Suplier_CAT#>
7786067

> <Name>
Novel

> <Concentration_(mM)>
2.5

> <IC50_(µM)>
inactive

> <Yeast_Active?>
-

> <Pubchem_CID>
1295140

$$$$
