
  -ISIS-  08130814242D

 19 21  0  0  0  0  0  0  0  0999 V2000
   -1.8458   -0.8792    0.0000 C   0  0  0  0  0  0  0  0  0  0  0  0
   -2.1458   -0.5000    0.0000 N   0  0  0  0  0  0  0  0  0  0  0  0
   -2.1208   -1.3000    0.0000 N   0  0  0  0  0  0  0  0  0  0  0  0
   -0.6000   -1.2167    0.0000 C   0  0  0  0  0  0  0  0  0  0  0  0
   -2.6000   -0.6500    0.0000 C   0  0  0  0  0  0  0  0  0  0  0  0
   -2.6000   -1.1500    0.0000 C   0  0  0  0  0  0  0  0  0  0  0  0
   -1.0833   -1.2500    0.0000 C   0  0  0  0  0  0  0  0  0  0  0  0
   -1.3500   -0.8500    0.0000 S   0  0  0  0  0  0  0  0  0  0  0  0
   -0.3458   -1.6042    0.0000 C   0  0  0  0  0  0  0  0  0  0  0  0
   -0.3958   -0.8000    0.0000 C   0  0  0  0  0  0  0  0  0  0  0  0
   -0.5625   -2.0292    0.0000 F   0  0  0  0  0  0  0  0  0  0  0  0
   -0.6625   -0.4042    0.0000 F   0  0  0  0  0  0  0  0  0  0  0  0
    0.3542   -1.1542    0.0000 C   0  0  0  0  0  0  0  0  0  0  0  0
   -3.0208   -0.4000    0.0000 C   0  0  0  0  0  0  0  0  0  0  0  0
   -3.0208   -1.4000    0.0000 C   0  0  0  0  0  0  0  0  0  0  0  0
    0.0875   -0.7667    0.0000 C   0  0  0  0  0  0  0  0  0  0  0  0
    0.1375   -1.5792    0.0000 C   0  0  0  0  0  0  0  0  0  0  0  0
   -3.4500   -0.6500    0.0000 C   0  0  0  0  0  0  0  0  0  0  0  0
   -3.4500   -1.1500    0.0000 C   0  0  0  0  0  0  0  0  0  0  0  0
  2  1  2  0  0  0  0
  3  1  1  0  0  0  0
  4  7  1  0  0  0  0
  5  2  1  0  0  0  0
  6  3  1  0  0  0  0
  7  8  1  0  0  0  0
  8  1  1  0  0  0  0
  9  4  2  0  0  0  0
 10  4  1  0  0  0  0
 11  9  1  0  0  0  0
 12 10  1  0  0  0  0
 13 16  1  0  0  0  0
 14  5  1  0  0  0  0
 15  6  1  0  0  0  0
 16 10  2  0  0  0  0
 17  9  1  0  0  0  0
 18 14  2  0  0  0  0
 19 15  2  0  0  0  0
  5  6  2  0  0  0  0
 18 19  1  0  0  0  0
 13 17  2  0  0  0  0
M  END
> <#>
773

> <PLATE>
LAT010

> <ROW>
E

> <COL>
8

> <COORD>
E08

> <LATID>
LAT010E08

> <Supplier>
Chembridge

> <Suplier_CAT#>
5616951

> <Name>
Novel

> <Sec_Name>
185_A11

> <Concentration_(mM)>
2.5

> <IC50_(µM)>
28

> <Yeast_Active?>
-

> <Pubchem_CID>
NULL

$$$$
