
  -ISIS-  08130814242D

 20 22  0  0  0  0  0  0  0  0999 V2000
   -1.0000    1.6708    0.0000 C   0  0  0  0  0  0  0  0  0  0  0  0
   -1.7625    2.7125    0.0000 N   0  0  3  0  0  0  0  0  0  0  0  0
    0.2375    2.0708    0.0000 N   0  0  0  0  0  0  0  0  0  0  0  0
   -1.7625    0.6125    0.0000 N   0  0  3  0  0  0  0  0  0  0  0  0
   -1.0000    3.7708    0.0000 C   0  0  0  0  0  0  0  0  0  0  0  0
    0.2375    3.3583    0.0000 C   0  0  0  0  0  0  0  0  0  0  0  0
   -3.0000    2.3125    0.0000 C   0  0  0  0  0  0  0  0  0  0  0  0
   -3.0000    1.0125    0.0000 C   0  0  0  0  0  0  0  0  0  0  0  0
   -1.3833    5.0292    0.0000 C   0  0  0  0  0  0  0  0  0  0  0  0
   -0.5000    5.9667    0.0000 O   0  0  0  0  0  0  0  0  0  0  0  0
   -1.3625   -0.6292    0.0000 C   0  0  0  0  0  0  0  0  0  0  0  0
    1.3000    4.1292    0.0000 C   0  0  0  0  0  0  0  0  0  0  0  0
   -4.1208    2.9708    0.0000 C   0  0  0  0  0  0  0  0  0  0  0  0
   -4.1208    0.3500    0.0000 C   0  0  0  0  0  0  0  0  0  0  0  0
   -2.6625    5.3292    0.0000 C   0  0  0  0  0  0  0  0  0  0  0  0
   -2.2208   -1.6042    0.0000 C   0  0  0  0  0  0  0  0  0  0  0  0
   -1.8208   -2.8292    0.0000 C   0  0  0  0  0  0  0  0  0  0  0  0
   -5.2458    2.3333    0.0000 C   0  0  0  0  0  0  0  0  0  0  0  0
   -5.2458    1.0125    0.0000 C   0  0  0  0  0  0  0  0  0  0  0  0
   -2.6833   -3.8042    0.0000 C   0  0  0  0  0  0  0  0  0  0  0  0
  2  1  1  0  0  0  0
  3  1  2  0  0  0  0
  4  1  1  0  0  0  0
  5  2  1  0  0  0  0
  6  3  1  0  0  0  0
  7  2  1  0  0  0  0
  8  4  1  0  0  0  0
  9  5  1  0  0  0  0
 10  9  2  0  0  0  0
 11  4  1  0  0  0  0
 12  6  1  0  0  0  0
 13  7  1  0  0  0  0
 14  8  1  0  0  0  0
 15  9  1  0  0  0  0
 16 11  1  0  0  0  0
 17 16  1  0  0  0  0
 18 13  2  0  0  0  0
 19 14  2  0  0  0  0
 20 17  1  0  0  0  0
  7  8  2  0  0  0  0
  6  5  2  0  0  0  0
 18 19  1  0  0  0  0
M  END
> <#>
858

> <PLATE>
LAT011

> <ROW>
B

> <COL>
9

> <COORD>
B09

> <LATID>
LAT011B09

> <Supplier>
Chembridge

> <Suplier_CAT#>
5652064

> <Name>
Novel

> <Sec_Name>
200_F02

> <Concentration_(mM)>
2.5

> <IC50_(µM)>
79

> <Yeast_Active?>
-

> <Pubchem_CID>
NULL

$$$$
