
  -ISIS-  08130814242D

 24 26  0  0  0  0  0  0  0  0999 V2000
   -0.9500    0.1333    0.0000 C   0  0  0  0  0  0  0  0  0  0  0  0
   -0.9500   -0.7000    0.0000 C   0  0  0  0  0  0  0  0  0  0  0  0
   -1.6708   -1.1125    0.0000 N   0  0  3  0  0  0  0  0  0  0  0  0
   -2.3833   -0.7000    0.0000 C   0  0  0  0  0  0  0  0  0  0  0  0
   -2.3833    0.1250    0.0000 N   0  0  3  0  0  0  0  0  0  0  0  0
   -1.6708    0.5458    0.0000 C   0  0  0  0  0  0  0  0  0  0  0  0
   -0.1625   -0.9542    0.0000 N   0  0  3  0  0  0  0  0  0  0  0  0
   -0.1625    0.3875    0.0000 N   0  0  0  0  0  0  0  0  0  0  0  0
    0.3250   -0.2792    0.0000 C   0  0  0  0  0  0  0  0  0  0  0  0
    0.0917   -1.7417    0.0000 C   0  0  0  0  0  0  0  0  0  0  0  0
    0.9000   -1.9125    0.0000 C   0  0  0  0  0  0  0  0  0  0  0  0
   -3.0958   -1.1125    0.0000 O   0  0  0  0  0  0  0  0  0  0  0  0
   -1.6708    1.3708    0.0000 O   0  0  0  0  0  0  0  0  0  0  0  0
    1.4667   -1.2917    0.0000 N   0  0  0  0  0  0  0  0  0  0  0  0
    3.6042   -1.7042    0.0000 N   0  0  0  0  0  0  0  0  0  0  0  0
   -1.6625   -1.9375    0.0000 C   0  0  0  0  0  0  0  0  0  0  0  0
    1.1542   -2.6917    0.0000 O   0  0  0  0  0  0  0  0  0  0  0  0
   -3.0958    0.5375    0.0000 C   0  0  0  0  0  0  0  0  0  0  0  0
    2.8917   -1.2917    0.0000 C   0  0  0  0  0  0  0  0  0  0  0  0
    2.1792   -1.7042    0.0000 C   0  0  0  0  0  0  0  0  0  0  0  0
    4.3250   -1.2917    0.0000 C   0  0  0  0  0  0  0  0  0  0  0  0
    2.8917   -0.4667    0.0000 C   0  0  0  0  0  0  0  0  0  0  0  0
    4.3167   -0.4625    0.0000 C   0  0  0  0  0  0  0  0  0  0  0  0
    3.6042   -0.0542    0.0000 C   0  0  0  0  0  0  0  0  0  0  0  0
  2  1  2  0  0  0  0
  3  2  1  0  0  0  0
  4  5  1  0  0  0  0
  5  6  1  0  0  0  0
  6  1  1  0  0  0  0
  7  2  1  0  0  0  0
  8  1  1  0  0  0  0
  9  8  2  0  0  0  0
 10  7  1  0  0  0  0
 11 10  1  0  0  0  0
 12  4  2  0  0  0  0
 13  6  2  0  0  0  0
 14 11  1  0  0  0  0
 15 19  1  0  0  0  0
 16  3  1  0  0  0  0
 17 11  2  0  0  0  0
 18  5  1  0  0  0  0
 19 20  1  0  0  0  0
 20 14  1  0  0  0  0
 21 15  2  0  0  0  0
 22 19  2  0  0  0  0
 23 24  2  0  0  0  0
 24 22  1  0  0  0  0
  7  9  1  0  0  0  0
  3  4  1  0  0  0  0
 21 23  1  0  0  0  0
M  END
> <#>
1529

> <PLATE>
LAT020

> <ROW>
A

> <COL>
3

> <COORD>
A03

> <LATID>
LAT020A03

> <Supplier>
Chembridge

> <Suplier_CAT#>
7784255

> <Name>
Novel

> <Concentration_(mM)>
2.5

> <IC50_(µM)>
inactive

> <Yeast_Active?>
-

> <Pubchem_CID>
978048

$$$$
