
  -ISIS-  08130814242D

 19 20  0  0  0  0  0  0  0  0999 V2000
   -2.6500   -0.5667    0.0000 N   0  3  0  0  0  0  0  0  0  0  0  0
   -2.6500    0.2000    0.0000 C   0  0  0  0  0  0  0  0  0  0  0  0
   -1.9708    0.6000    0.0000 C   0  0  0  0  0  0  0  0  0  0  0  0
   -1.9708    1.3958    0.0000 C   0  0  0  0  0  0  0  0  0  0  0  0
   -1.2708    1.7958    0.0000 N   0  0  0  0  0  0  0  0  0  0  0  0
   -3.2958   -1.0167    0.0000 O   0  5  0  0  0  0  0  0  0  0  0  0
   -2.0125   -1.0000    0.0000 O   0  0  0  0  0  0  0  0  0  0  0  0
   -2.6500    1.7708    0.0000 C   0  0  0  0  0  0  0  0  0  0  0  0
   -3.3458    0.6000    0.0000 C   0  0  0  0  0  0  0  0  0  0  0  0
   -3.3458    1.3958    0.0000 C   0  0  0  0  0  0  0  0  0  0  0  0
   -0.3000    1.7458    0.0000 C   0  0  0  0  0  0  0  0  0  0  0  0
   -2.6500    2.5500    0.0000 O   0  0  0  0  0  0  0  0  0  0  0  0
    0.3542    2.1125    0.0000 C   0  0  0  0  0  0  0  0  0  0  0  0
   -1.9958    2.9333    0.0000 C   0  0  0  0  0  0  0  0  0  0  0  0
    1.0292    1.7208    0.0000 C   0  0  0  0  0  0  0  0  0  0  0  0
    0.3542    2.8708    0.0000 C   0  0  0  0  0  0  0  0  0  0  0  0
    1.0292    3.2708    0.0000 C   0  0  0  0  0  0  0  0  0  0  0  0
    1.7000    2.1125    0.0000 C   0  0  0  0  0  0  0  0  0  0  0  0
    1.7000    2.8708    0.0000 C   0  0  0  0  0  0  0  0  0  0  0  0
  2  1  1  0  0  0  0
  3  2  2  0  0  0  0
  4  3  1  0  0  0  0
  5  4  1  0  0  0  0
  6  1  1  0  0  0  0
  7  1  2  0  0  0  0
  8 10  1  0  0  0  0
  9  2  1  0  0  0  0
 10  9  2  0  0  0  0
 11  5  1  0  0  0  0
 12  8  1  0  0  0  0
 13 11  1  0  0  0  0
 14 12  1  0  0  0  0
 15 13  1  0  0  0  0
 16 13  2  0  0  0  0
 17 16  1  0  0  0  0
 18 15  2  0  0  0  0
 19 17  2  0  0  0  0
  4  8  2  0  0  0  0
 18 19  1  0  0  0  0
M  CHG  2   1   1   6  -1
M  END
> <#>
609

> <PLATE>
LAT008

> <ROW>
A

> <COL>
8

> <COORD>
A08

> <LATID>
LAT008A08

> <Supplier>
Chembridge

> <Suplier_CAT#>
5532664

> <Name>
Novel

> <Sec_Name>
154_F07

> <Concentration_(mM)>
2.5

> <IC50_(µM)>
31

> <Yeast_Active?>
-

> <Pubchem_CID>
NULL

$$$$
