
  -ISIS-  08130814242D

 21 22  0  0  0  0  0  0  0  0999 V2000
    6.2167    0.8750    0.0000 C   0  0  0  0  0  0  0  0  0  0  0  0
    5.0375    1.1250    0.0000 N   0  0  3  0  0  0  0  0  0  0  0  0
    5.1125    0.3833    0.0000 N   0  0  0  0  0  0  0  0  0  0  0  0
    5.7167    1.4333    0.0000 C   0  0  0  0  0  0  0  0  0  0  0  0
    5.8417    0.2250    0.0000 C   0  0  0  0  0  0  0  0  0  0  0  0
    6.9667    0.9500    0.0000 N   0  3  0  0  0  0  0  0  0  0  0  0
    4.3875    1.5000    0.0000 C   0  0  0  0  0  0  0  0  0  0  0  0
    3.7375    1.1250    0.0000 C   0  0  0  0  0  0  0  0  0  0  0  0
    7.4042    0.3458    0.0000 O   0  5  0  0  0  0  0  0  0  0  0  0
    7.2750    1.6375    0.0000 O   0  0  0  0  0  0  0  0  0  0  0  0
    3.0875    1.5000    0.0000 N   0  0  0  0  0  0  0  0  0  0  0  0
    1.7875    2.2500    0.0000 N   0  0  0  0  0  0  0  0  0  0  0  0
    3.7375    0.3750    0.0000 O   0  0  0  0  0  0  0  0  0  0  0  0
    1.7875    1.5000    0.0000 C   0  0  0  0  0  0  0  0  0  0  0  0
    5.8750    2.1625    0.0000 C   0  0  0  0  0  0  0  0  0  0  0  0
    6.1542   -0.4625    0.0000 C   0  0  0  0  0  0  0  0  0  0  0  0
    2.4375    1.1250    0.0000 C   0  0  0  0  0  0  0  0  0  0  0  0
    1.1375    2.6250    0.0000 C   0  0  0  0  0  0  0  0  0  0  0  0
    1.1375    1.1250    0.0000 C   0  0  0  0  0  0  0  0  0  0  0  0
    0.4875    2.2500    0.0000 C   0  0  0  0  0  0  0  0  0  0  0  0
    0.4875    1.5000    0.0000 C   0  0  0  0  0  0  0  0  0  0  0  0
  2  4  1  0  0  0  0
  3  5  2  0  0  0  0
  4  1  2  0  0  0  0
  5  1  1  0  0  0  0
  6  1  1  0  0  0  0
  7  2  1  0  0  0  0
  8  7  1  0  0  0  0
  9  6  1  0  0  0  0
 10  6  2  0  0  0  0
 11  8  1  0  0  0  0
 12 14  2  0  0  0  0
 13  8  2  0  0  0  0
 14 17  1  0  0  0  0
 15  4  1  0  0  0  0
 16  5  1  0  0  0  0
 17 11  1  0  0  0  0
 18 12  1  0  0  0  0
 19 14  1  0  0  0  0
 20 21  1  0  0  0  0
 21 19  2  0  0  0  0
  3  2  1  0  0  0  0
 20 18  2  0  0  0  0
M  CHG  2   6   1   9  -1
M  END
> <#>
1586

> <PLATE>
LAT020

> <ROW>
B

> <COL>
10

> <COORD>
B10

> <LATID>
LAT020B10

> <Supplier>
Chembridge

> <Suplier_CAT#>
7985373

> <Name>
Novel

> <Concentration_(mM)>
2.5

> <IC50_(µM)>
inactive

> <Yeast_Active?>
-

> <Pubchem_CID>
1258199

$$$$
