
  -ISIS-  08130814242D

 33 35  0  0  0  0  0  0  0  0999 V2000
    4.7500   -3.1042    0.0000 N   0  0  3  0  0  0  0  0  0  0  0  0
    5.3292   -3.9167    0.0000 C   0  0  0  0  0  0  0  0  0  0  0  0
    0.1625   -2.2917    0.0000 N   0  0  3  0  0  0  0  0  0  0  0  0
    5.5875   -2.4542    0.0000 C   0  0  0  0  0  0  0  0  0  0  0  0
   -0.8375   -2.2917    0.0000 C   0  0  0  0  0  0  0  0  0  0  0  0
    3.7500   -3.1042    0.0000 C   0  0  0  0  0  0  0  0  0  0  0  0
    2.1542   -2.2917    0.0000 N   0  0  3  0  0  0  0  0  0  0  0  0
    6.3292   -3.9167    0.0000 C   0  0  0  0  0  0  0  0  0  0  0  0
    6.6292   -2.4542    0.0000 N   0  0  0  0  0  0  0  0  0  0  0  0
    4.7500   -4.7292    0.0000 O   0  0  0  0  0  0  0  0  0  0  0  0
    0.6625   -1.4292    0.0000 C   0  0  0  0  0  0  0  0  0  0  0  0
    0.6625   -3.1625    0.0000 C   0  0  0  0  0  0  0  0  0  0  0  0
   -1.3375   -1.4292    0.0000 C   0  0  0  0  0  0  0  0  0  0  0  0
    3.1542   -2.2917    0.0000 C   0  0  0  0  0  0  0  0  0  0  0  0
    6.8292   -3.0542    0.0000 C   0  0  0  0  0  0  0  0  0  0  0  0
    6.8292   -4.7792    0.0000 C   0  0  0  0  0  0  0  0  0  0  0  0
    1.6542   -1.4292    0.0000 C   0  0  0  0  0  0  0  0  0  0  0  0
    1.6542   -3.1625    0.0000 C   0  0  0  0  0  0  0  0  0  0  0  0
    8.3250   -3.9167    0.0000 C   0  0  0  0  0  0  0  0  0  0  0  0
    7.8250   -4.7792    0.0000 C   0  0  0  0  0  0  0  0  0  0  0  0
    7.8250   -3.0542    0.0000 C   0  0  0  0  0  0  0  0  0  0  0  0
    9.3250   -3.9167    0.0000 I   0  0  0  0  0  0  0  0  0  0  0  0
   -0.5958   -0.7625    0.0000 O   0  0  0  0  0  0  0  0  0  0  0  0
    5.0792   -1.5875    0.0000 C   0  0  0  0  0  0  0  0  0  0  0  0
   -1.3375   -3.1667    0.0000 C   0  0  0  0  0  0  0  0  0  0  0  0
    7.1167   -1.7042    0.0000 C   0  0  0  0  0  0  0  0  0  0  0  0
   -2.3375   -1.4292    0.0000 C   0  0  0  0  0  0  0  0  0  0  0  0
   -0.6000    0.2375    0.0000 C   0  0  0  0  0  0  0  0  0  0  0  0
    5.5875   -0.7167    0.0000 C   0  0  0  0  0  0  0  0  0  0  0  0
   -2.3375   -3.1667    0.0000 C   0  0  0  0  0  0  0  0  0  0  0  0
    6.5917   -0.7167    0.0000 C   0  0  0  0  0  0  0  0  0  0  0  0
   -2.8333   -2.2917    0.0000 C   0  0  0  0  0  0  0  0  0  0  0  0
    7.7500    0.5708    0.0000 Cl  0  0  0  0  0  0  0  0  0  0  0  0
  2  1  1  0  0  0  0
  3 12  1  0  0  0  0
  4  1  1  0  0  0  0
  5  3  1  0  0  0  0
  6  1  1  0  0  0  0
  7 14  1  0  0  0  0
  8  2  1  0  0  0  0
  9  4  2  0  0  0  0
 10  2  2  0  0  0  0
 11 17  1  0  0  0  0
 12 18  1  0  0  0  0
 13  5  2  0  0  0  0
 14  6  1  0  0  0  0
 15  8  1  0  0  0  0
 16  8  2  0  0  0  0
 17  7  1  0  0  0  0
 18  7  1  0  0  0  0
 19 20  2  0  0  0  0
 20 16  1  0  0  0  0
 21 15  2  0  0  0  0
 22 19  1  0  0  0  0
 23 13  1  0  0  0  0
 24  4  1  0  0  0  0
 25  5  1  0  0  0  0
 26  9  1  0  0  0  0
 27 13  1  0  0  0  0
 28 23  1  0  0  0  0
 29 24  2  0  0  0  0
 30 25  2  0  0  0  0
 31 29  1  0  0  0  0
 32 30  1  0  0  0  0
 26 31  2  0  0  0  0
 21 19  1  0  0  0  0
 11  3  1  0  0  0  0
 27 32  2  0  0  0  0
M  END
> <#>
252

> <PLATE>
LAT004

> <ROW>
D

> <COL>
3

> <COORD>
D03

> <LATID>
LAT004D03

> <Supplier>
Sigma

> <Suplier_CAT#>
M-204

> <Name>
P-Mppi Hydrochloride

> <Concentration_(mM)>
2.5

> <IC50_(µM)>
17

> <Yeast_Active?>
-

> <Pubchem_CID>
4658

> <Description>
Selective 5-HT1A serotonin receptor antagonist which crosses the blood-brain barrier

$$$$
