
  -ISIS-  08130814242D

 22 22  0  0  0  0  0  0  0  0999 V2000
   -3.8194    2.6042    0.0000 C   0  0  0  0  0  0  0  0  0  0  0  0
   -3.8194    1.3542    0.0000 C   0  0  0  0  0  0  0  0  0  0  0  0
   -2.7369    0.7292    0.0000 C   0  0  0  0  0  0  0  0  0  0  0  0
   -2.7369   -0.5208    0.0000 C   0  0  0  0  0  0  0  0  0  0  0  0
   -3.8194   -1.1458    0.0000 C   0  0  0  0  0  0  0  0  0  0  0  0
   -4.9020   -0.5208    0.0000 C   0  0  0  0  0  0  0  0  0  0  0  0
   -4.9020    0.7292    0.0000 C   0  0  0  0  0  0  0  0  0  0  0  0
   -2.7369    3.2292    0.0000 O   0  0  0  0  0  0  0  0  0  0  0  0
   -4.9020    3.2292    0.0000 O   0  0  0  0  0  0  0  0  0  0  0  0
   -1.6544   -1.1458    0.0000 O   0  0  0  0  0  0  0  0  0  0  0  0
   -0.5718   -0.5208    0.0000 C   0  0  0  0  0  0  0  0  0  0  0  0
    0.5107   -1.1458    0.0000 C   0  0  0  0  0  0  0  0  0  0  0  0
    1.5932   -0.5208    0.0000 C   0  0  0  0  0  0  0  0  0  0  0  0
    2.6758   -1.1458    0.0000 C   0  0  0  0  0  0  0  0  0  0  0  0
    3.7583   -0.5208    0.0000 C   0  0  0  0  0  0  0  0  0  0  0  0
    4.8408   -1.1458    0.0000 C   0  0  0  0  0  0  0  0  0  0  0  0
    5.9233   -0.5208    0.0000 C   0  0  0  0  0  0  0  0  0  0  0  0
    7.0059   -1.1458    0.0000 C   0  0  0  0  0  0  0  0  0  0  0  0
   -0.5718    0.7292    0.0000 O   0  0  0  0  0  0  0  0  0  0  0  0
   -3.8194   -2.3958    0.0000 N   0  3  0  0  0  0  0  0  0  0  0  0
   -2.7369   -3.0208    0.0000 O   0  0  0  0  0  0  0  0  0  0  0  0
   -4.9020   -3.0208    0.0000 O   0  5  0  0  0  0  0  0  0  0  0  0
  1  2  1  0  0  0  0
  2  3  1  0  0  0  0
  3  4  2  0  0  0  0
  4  5  1  0  0  0  0
  5  6  2  0  0  0  0
  6  7  1  0  0  0  0
  2  7  2  0  0  0  0
  1  8  2  0  0  0  0
  1  9  1  0  0  0  0
 11 12  1  0  0  0  0
 12 13  1  0  0  0  0
 13 14  1  0  0  0  0
 14 15  1  0  0  0  0
 15 16  1  0  0  0  0
 16 17  1  0  0  0  0
 17 18  1  0  0  0  0
 11 19  2  0  0  0  0
 10 11  1  0  0  0  0
  4 10  1  0  0  0  0
 20 21  2  0  0  0  0
 20 22  1  0  0  0  0
  5 20  1  0  0  0  0
M  CHG  2  20   1  22  -1
M  END
> <#>
395

> <PLATE>
LAT005

> <ROW>
C

> <COL>
11

> <COORD>
C11

> <LATID>
LAT005C11

> <Supplier>
Sigma

> <Suplier_CAT#>
N-1646

> <Name>
4-Nitro-3-(Octanoyloxy)-Benzoic Acid

> <Concentration_(mM)>
2.5

> <IC50_(µM)>
100

> <Yeast_Active?>
-

> <Pubchem_CID>
NULL

$$$$
