
  -ISIS-  08130814242D

 33 36  0  0  0  0  0  0  0  0999 V2000
    0.0500    1.1125    0.0000 N   0  0  3  0  0  0  0  0  0  0  0  0
   -0.8958   -0.0875    0.0000 C   0  0  0  0  0  0  0  0  0  0  0  0
   -0.3708   -0.7500    0.0000 C   0  0  0  0  0  0  0  0  0  0  0  0
   -0.7000    0.7458    0.0000 C   0  0  3  0  0  0  0  0  0  0  0  0
    0.0292    1.9583    0.0000 C   0  0  0  0  0  0  0  0  0  0  0  0
   -1.7333   -0.2042    0.0000 C   0  0  0  0  0  0  0  0  0  0  0  0
    0.4875   -0.7500    0.0000 N   0  0  0  0  0  0  0  0  0  0  0  0
   -3.6833    2.3833    0.0000 N   0  3  0  0  0  0  0  0  0  0  0  0
    0.7500    2.3958    0.0000 C   0  0  3  0  0  0  0  0  0  0  0  0
    0.8042    0.7333    0.0000 C   0  0  0  0  0  0  0  0  0  0  0  0
    1.0042   -0.0875    0.0000 C   0  0  0  0  0  0  0  0  0  0  0  0
   -0.6708   -1.5292    0.0000 C   0  0  0  0  0  0  0  0  0  0  0  0
   -1.5125   -1.6667    0.0000 C   0  0  3  0  0  0  0  0  0  0  0  0
   -2.9333    1.9708    0.0000 C   0  0  0  0  0  0  0  0  0  0  0  0
   -1.4458    1.1333    0.0000 C   0  0  0  0  0  0  0  0  0  0  0  0
   -2.0500   -1.0042    0.0000 C   0  0  0  0  0  0  0  0  0  0  0  0
   -3.7125    3.2208    0.0000 O   0  5  0  0  0  0  0  0  0  0  0  0
   -4.4083    1.9458    0.0000 O   0  0  0  0  0  0  0  0  0  0  0  0
   -0.7333    2.3708    0.0000 O   0  0  0  0  0  0  0  0  0  0  0  0
   -2.6333    0.2125    0.0000 O   0  0  0  0  0  0  0  0  0  0  0  0
   -2.2000    2.4125    0.0000 C   0  0  0  0  0  0  0  0  0  0  0  0
   -2.9125    1.1125    0.0000 C   0  0  0  0  0  0  0  0  0  0  0  0
    1.1875    1.6708    0.0000 F   0  0  0  0  0  0  0  0  0  0  0  0
    0.2875    3.1333    0.0000 F   0  0  0  0  0  0  0  0  0  0  0  0
    1.4667    2.8500    0.0000 F   0  0  0  0  0  0  0  0  0  0  0  0
   -1.4458    1.9833    0.0000 C   0  0  0  0  0  0  0  0  0  0  0  0
   -2.1833    0.7000    0.0000 C   0  0  0  0  0  0  0  0  0  0  0  0
    1.4292    1.3125    0.0000 C   0  0  0  0  0  0  0  0  0  0  0  0
    1.8292   -0.3292    0.0000 C   0  0  0  0  0  0  0  0  0  0  0  0
   -1.3708   -2.5042    0.0000 C   0  0  0  0  0  0  0  0  0  0  0  0
   -2.2958   -2.0042    0.0000 C   0  0  0  0  0  0  0  0  0  0  0  0
    2.2292    1.0958    0.0000 C   0  0  0  0  0  0  0  0  0  0  0  0
    2.4292    0.2500    0.0000 C   0  0  0  0  0  0  0  0  0  0  0  0
  2  4  1  0  0  0  0
  3  2  2  0  0  0  0
  4  1  1  0  0  0  0
  5  1  1  0  0  0  0
  6  2  1  0  0  0  0
  7 11  1  0  0  0  0
  8 14  1  0  0  0  0
  9  5  1  0  0  0  0
 10  1  1  0  0  0  0
 11 10  2  0  0  0  0
 12  3  1  0  0  0  0
 13 16  1  0  0  0  0
 14 22  1  0  0  0  0
 15  4  1  0  0  0  0
 16  6  1  0  0  0  0
 17  8  1  0  0  0  0
 18  8  2  0  0  0  0
 19  5  2  0  0  0  0
 20  6  2  0  0  0  0
 21 26  1  0  0  0  0
 22 27  2  0  0  0  0
 23  9  1  0  0  0  0
 24  9  1  0  0  0  0
 25  9  1  0  0  0  0
 26 15  2  0  0  0  0
 27 15  1  0  0  0  0
 28 10  1  0  0  0  0
 29 11  1  0  0  0  0
 30 13  1  0  0  0  0
 31 13  1  0  0  0  0
 32 28  2  0  0  0  0
 33 32  1  0  0  0  0
  3  7  1  0  0  0  0
 33 29  2  0  0  0  0
 21 14  2  0  0  0  0
 12 13  1  0  0  0  0
M  CHG  2   8   1  17  -1
M  END
> <#>
837

> <PLATE>
LAT011

> <ROW>
E

> <COL>
6

> <COORD>
E06

> <LATID>
LAT011E06

> <Supplier>
Chembridge

> <Suplier_CAT#>
5634386

> <Name>
Novel

> <Sec_Name>
193_F03

> <Concentration_(mM)>
2.5

> <IC50_(µM)>
33

> <Yeast_Active?>
-

> <Pubchem_CID>
1019626

$$$$
