
  -ISIS-  08130814242D

 21 22  0  0  0  0  0  0  0  0999 V2000
    1.8000    0.5500    0.0000 N   0  3  0  0  0  0  0  0  0  0  0  0
    1.1375    0.9333    0.0000 C   0  0  0  0  0  0  0  0  0  0  0  0
   -2.7208    1.6708    0.0000 N   0  0  0  0  0  0  0  0  0  0  0  0
    1.8000   -0.2292    0.0000 O   0  5  0  0  0  0  0  0  0  0  0  0
   -1.4208    1.6958    0.0000 C   0  0  0  0  0  0  0  0  0  0  0  0
    2.4542    0.9333    0.0000 O   0  0  0  0  0  0  0  0  0  0  0  0
   -2.0625    2.0500    0.0000 N   0  0  0  0  0  0  0  0  0  0  0  0
   -4.6833    0.5500    0.0000 N   0  0  0  0  0  0  0  0  0  0  0  0
   -1.4208    0.9333    0.0000 O   0  0  0  0  0  0  0  0  0  0  0  0
   -3.3833    2.0500    0.0000 C   0  0  0  0  0  0  0  0  0  0  0  0
    1.1375    1.6958    0.0000 C   0  0  0  0  0  0  0  0  0  0  0  0
    0.5000    0.5708    0.0000 C   0  0  0  0  0  0  0  0  0  0  0  0
   -4.0458    1.6708    0.0000 C   0  0  0  0  0  0  0  0  0  0  0  0
   -0.7833    2.0500    0.0000 C   0  0  0  0  0  0  0  0  0  0  0  0
   -0.1458    1.6958    0.0000 C   0  0  0  0  0  0  0  0  0  0  0  0
    0.5000    2.0500    0.0000 C   0  0  0  0  0  0  0  0  0  0  0  0
   -0.1458    0.9333    0.0000 C   0  0  0  0  0  0  0  0  0  0  0  0
   -4.0458    0.9125    0.0000 C   0  0  0  0  0  0  0  0  0  0  0  0
   -5.3208    0.9125    0.0000 C   0  0  0  0  0  0  0  0  0  0  0  0
   -4.6833    2.0333    0.0000 C   0  0  0  0  0  0  0  0  0  0  0  0
   -5.3208    1.6708    0.0000 C   0  0  0  0  0  0  0  0  0  0  0  0
  2  1  1  0  0  0  0
  3  7  1  0  0  0  0
  4  1  1  0  0  0  0
  5 14  1  0  0  0  0
  6  1  2  0  0  0  0
  7  5  1  0  0  0  0
  8 18  2  0  0  0  0
  9  5  2  0  0  0  0
 10  3  2  0  0  0  0
 11  2  1  0  0  0  0
 12  2  2  0  0  0  0
 13 10  1  0  0  0  0
 14 15  1  0  0  0  0
 15 17  2  0  0  0  0
 16 11  2  0  0  0  0
 17 12  1  0  0  0  0
 18 13  1  0  0  0  0
 19 21  2  0  0  0  0
 20 13  2  0  0  0  0
 21 20  1  0  0  0  0
 15 16  1  0  0  0  0
 19  8  1  0  0  0  0
M  CHG  2   1   1   4  -1
M  END
> <#>
1673

> <PLATE>
LAT021

> <ROW>
A

> <COL>
11

> <COORD>
A11

> <LATID>
LAT021A11

> <Supplier>
Chembridge

> <Suplier_CAT#>
5532176

> <Name>
Novel

> <Concentration_(mM)>
2.5

> <IC50_(µM)>
>100

> <Yeast_Active?>
-

> <Pubchem_CID>
871111

$$$$
