
  -ISIS-  08130814242D

 28 31  0  0  0  0  0  0  0  0999 V2000
    3.0500   -3.5542    0.0000 N   0  0  0  0  0  0  0  0  0  0  0  0
    3.8000   -2.2375    0.0000 C   0  0  0  0  0  0  0  0  0  0  0  0
    3.8000   -3.1167    0.0000 C   0  0  0  0  0  0  0  0  0  0  0  0
    6.8292   -2.2375    0.0000 C   0  0  0  0  0  0  0  0  0  0  0  0
    3.0500   -1.8042    0.0000 C   0  0  0  0  0  0  0  0  0  0  0  0
    2.2875   -3.1167    0.0000 C   0  0  0  0  0  0  0  0  0  0  0  0
    5.3167   -2.2375    0.0000 N   0  0  0  0  0  0  0  0  0  0  0  0
    2.2875   -2.2375    0.0000 C   0  0  0  0  0  0  0  0  0  0  0  0
    4.5542   -1.8042    0.0000 C   0  0  0  0  0  0  0  0  0  0  0  0
    6.0792   -1.8042    0.0000 N   0  0  0  0  0  0  0  0  0  0  0  0
   10.6167   -1.8042    0.0000 C   0  0  0  0  0  0  0  0  0  0  0  0
    6.8292   -3.1167    0.0000 O   0  0  0  0  0  0  0  0  0  0  0  0
    9.8542   -2.2375    0.0000 C   0  0  0  0  0  0  0  0  0  0  0  0
    8.3500   -2.2375    0.0000 N   0  0  0  0  0  0  0  0  0  0  0  0
   10.6167   -0.9292    0.0000 C   0  0  0  0  0  0  0  0  0  0  0  0
    7.5875   -1.8042    0.0000 C   0  0  0  0  0  0  0  0  0  0  0  0
    9.1042   -1.8042    0.0000 C   0  0  0  0  0  0  0  0  0  0  0  0
    4.5542   -3.5542    0.0000 Cl  0  0  0  0  0  0  0  0  0  0  0  0
    9.8542   -0.5000    0.0000 C   0  0  0  0  0  0  0  0  0  0  0  0
    9.1042   -0.9292    0.0000 C   0  0  0  0  0  0  0  0  0  0  0  0
    1.5375   -3.5375    0.0000 C   0  0  0  0  0  0  0  0  0  0  0  0
    1.5375   -1.7875    0.0000 C   0  0  0  0  0  0  0  0  0  0  0  0
   11.3792   -2.2375    0.0000 C   0  0  0  0  0  0  0  0  0  0  0  0
   11.3792   -0.5000    0.0000 C   0  0  0  0  0  0  0  0  0  0  0  0
    0.7667   -2.2375    0.0000 C   0  0  0  0  0  0  0  0  0  0  0  0
   12.1375   -1.8042    0.0000 C   0  0  0  0  0  0  0  0  0  0  0  0
    0.7667   -3.1167    0.0000 C   0  0  0  0  0  0  0  0  0  0  0  0
   12.1375   -0.9292    0.0000 C   0  0  0  0  0  0  0  0  0  0  0  0
  2  3  1  0  0  0  0
  3  1  2  0  0  0  0
  4 10  1  0  0  0  0
  5  8  1  0  0  0  0
  6  1  1  0  0  0  0
  7  9  2  0  0  0  0
  8  6  2  0  0  0  0
  9  2  1  0  0  0  0
 10  7  1  0  0  0  0
 11 13  1  0  0  0  0
 12  4  2  0  0  0  0
 13 17  2  0  0  0  0
 14 16  1  0  0  0  0
 15 19  1  0  0  0  0
 16  4  1  0  0  0  0
 17 14  1  0  0  0  0
 18  3  1  0  0  0  0
 19 20  2  0  0  0  0
 20 17  1  0  0  0  0
 21  6  1  0  0  0  0
 22  8  1  0  0  0  0
 23 11  1  0  0  0  0
 24 15  1  0  0  0  0
 25 27  1  0  0  0  0
 26 23  2  0  0  0  0
 27 21  2  0  0  0  0
 28 24  2  0  0  0  0
  2  5  2  0  0  0  0
 22 25  2  0  0  0  0
 15 11  2  0  0  0  0
 28 26  1  0  0  0  0
M  END
> <#>
1610

> <PLATE>
LAT021

> <ROW>
B

> <COL>
3

> <COORD>
B03

> <LATID>
LAT021B03

> <Supplier>
Chembridge

> <Suplier_CAT#>
5200786

> <Name>
Novel

> <Concentration_(mM)>
2.5

> <IC50_(µM)>
>100

> <Yeast_Active?>
-

> <Pubchem_CID>
1377578

$$$$
