
  -ISIS-  08130814242D

 29 32  0  0  0  0  0  0  0  0999 V2000
    1.1667   -0.1375    0.0000 C   0  0  0  0  0  0  0  0  0  0  0  0
   -1.3208   -1.6792    0.0000 C   0  0  0  0  0  0  0  0  0  0  0  0
   -0.4625   -2.0542    0.0000 C   0  0  0  0  0  0  0  0  0  0  0  0
    2.1000   -0.1542    0.0000 C   0  0  0  0  0  0  0  0  0  0  0  0
    0.5000   -1.3875    0.0000 N   0  0  0  0  0  0  0  0  0  0  0  0
   -2.1208   -2.1542    0.0000 O   0  0  0  0  0  0  0  0  0  0  0  0
   -2.8208   -1.5167    0.0000 C   0  0  0  0  0  0  0  0  0  0  0  0
    0.7292    0.6708    0.0000 C   0  0  0  0  0  0  0  0  0  0  0  0
   -1.5208   -0.7792    0.0000 C   0  0  0  0  0  0  0  0  0  0  0  0
    1.9792   -0.9542    0.0000 N   0  0  0  0  0  0  0  0  0  0  0  0
   -2.4458   -0.6792    0.0000 C   0  0  0  0  0  0  0  0  0  0  0  0
   -1.5500    1.5625    0.0000 C   0  0  0  0  0  0  0  0  0  0  0  0
   -2.0458    0.7833    0.0000 C   0  0  0  0  0  0  0  0  0  0  0  0
   -1.9125    2.2333    0.0000 O   0  0  0  0  0  0  0  0  0  0  0  0
   -0.1958    0.6958    0.0000 C   0  0  0  0  0  0  0  0  0  0  0  0
   -2.9625    1.0333    0.0000 O   0  0  0  0  0  0  0  0  0  0  0  0
   -2.8708    1.9958    0.0000 C   0  0  0  0  0  0  0  0  0  0  0  0
   -0.6208    1.5000    0.0000 C   0  0  0  0  0  0  0  0  0  0  0  0
   -0.3458   -2.9792    0.0000 O   0  0  0  0  0  0  0  0  0  0  0  0
    2.8500    0.2333    0.0000 O   0  0  0  0  0  0  0  0  0  0  0  0
   -1.6125   -0.0292    0.0000 C   0  0  0  0  0  0  0  0  0  0  0  0
   -3.7458   -1.7000    0.0000 Br  0  0  0  0  0  0  0  0  0  0  0  0
    2.7167   -1.5375    0.0000 C   0  0  0  0  0  0  0  0  0  0  0  0
   -0.7000   -0.0792    0.0000 C   0  0  0  0  0  0  0  0  0  0  0  0
    3.6042   -1.2000    0.0000 C   0  0  0  0  0  0  0  0  0  0  0  0
    2.5792   -2.4667    0.0000 C   0  0  0  0  0  0  0  0  0  0  0  0
    3.3042   -3.0667    0.0000 C   0  0  0  0  0  0  0  0  0  0  0  0
    4.3500   -1.7792    0.0000 C   0  0  0  0  0  0  0  0  0  0  0  0
    4.2000   -2.7292    0.0000 C   0  0  0  0  0  0  0  0  0  0  0  0
  2  3  1  0  0  0  0
  3  5  1  0  0  0  0
  4  1  1  0  0  0  0
  5  1  1  0  0  0  0
  6  2  1  0  0  0  0
  7  6  1  0  0  0  0
  8  1  2  0  0  0  0
  9  2  2  0  0  0  0
 10  4  1  0  0  0  0
 11  9  1  0  0  0  0
 12 18  2  0  0  0  0
 13 21  2  0  0  0  0
 14 12  1  0  0  0  0
 15  8  1  0  0  0  0
 16 13  1  0  0  0  0
 17 14  1  0  0  0  0
 18 15  1  0  0  0  0
 19  3  2  0  0  0  0
 20  4  2  0  0  0  0
 21 24  1  0  0  0  0
 22  7  1  0  0  0  0
 23 10  1  0  0  0  0
 24 15  2  0  0  0  0
 25 23  2  0  0  0  0
 26 23  1  0  0  0  0
 27 26  2  0  0  0  0
 28 25  1  0  0  0  0
 29 27  1  0  0  0  0
 13 12  1  0  0  0  0
 11  7  2  0  0  0  0
 17 16  1  0  0  0  0
 28 29  2  0  0  0  0
M  END
> <#>
1832

> <PLATE>
LAT023

> <ROW>
H

> <COL>
10

> <COORD>
H10

> <LATID>
LAT023H10

> <Supplier>
Chembridge

> <Suplier_CAT#>
5679677

> <Name>
Bendoxamide

> <Sec_Name>
215_H05

> <Concentration_(mM)>
2.5

> <IC50_(µM)>
1

> <Yeast_Active?>
-

> <Pubchem_CID>
1099847

$$$$
