
  -ISIS-  08130814242D

 31 32  0  0  0  0  0  0  0  0999 V2000
    2.8166   -6.5993    0.0000 C   0  0  0  0  0  0  0  0  0  0  0  0
    1.8798   -7.3810    0.0000 C   0  0  0  0  0  0  0  0  0  0  0  0
    0.7366   -6.9674    0.0000 C   0  0  0  0  0  0  0  0  0  0  0  0
    0.5227   -5.7665    0.0000 C   0  0  0  0  0  0  0  0  0  0  0  0
    1.4562   -4.9800    0.0000 C   0  0  0  0  0  0  0  0  0  0  0  0
    2.6028   -5.3984    0.0000 C   0  0  0  0  0  0  0  0  0  0  0  0
    1.4575   -3.3969    0.0000 C   0  0  0  0  0  0  0  0  0  0  0  0
    0.4068   -2.7840    0.0000 C   0  0  0  0  0  0  0  0  0  0  0  0
   -0.6534   -3.3878    0.0000 C   0  0  0  0  0  0  0  0  0  0  0  0
   -1.7083   -2.7748    0.0000 C   0  0  0  0  0  0  0  0  0  0  0  0
   -1.7030   -1.5540    0.0000 C   0  0  0  0  0  0  0  0  0  0  0  0
   -2.7537   -0.9411    0.0000 O   0  0  0  0  0  0  0  0  0  0  0  0
   -0.6428   -0.9503    0.0000 C   0  0  0  0  0  0  0  0  0  0  0  0
    0.4121   -1.5632    0.0000 C   0  0  0  0  0  0  0  0  0  0  0  0
    1.4681   -0.9595    0.0000 O   0  0  0  0  0  0  0  0  0  0  0  0
    2.5229   -1.5724    0.0000 C   0  0  0  0  0  0  0  0  0  0  0  0
    3.5789   -0.9686    0.0000 C   0  0  0  0  0  0  0  0  0  0  0  0
    4.6338   -1.5816    0.0000 C   0  0  0  0  0  0  0  0  0  0  0  0
    4.6285   -2.8024    0.0000 C   0  0  0  0  0  0  0  0  0  0  0  0
    3.5684   -3.4061    0.0000 C   0  0  0  0  0  0  0  0  0  0  0  0
    2.5176   -2.7932    0.0000 C   0  0  0  0  0  0  0  0  0  0  0  0
    5.6834   -3.4153    0.0000 I   0  0  0  0  0  0  0  0  0  0  0  0
    5.6940   -0.9778    0.0000 O   0  5  0  0  0  0  0  0  0  0  0  0
    3.5842    0.2480    0.0000 I   0  0  0  0  0  0  0  0  0  0  0  0
   -0.6375    0.2664    0.0000 I   0  0  0  0  0  0  0  0  0  0  0  0
   -2.7643   -3.3786    0.0000 I   0  0  0  0  0  0  0  0  0  0  0  0
   -0.6754   -5.5552    0.0000 C   0  0  0  0  0  0  0  0  0  0  0  0
   -1.4616   -6.4862    0.0000 O   0  0  0  0  0  0  0  0  0  0  0  0
   -1.0991   -4.3990    0.0000 O   0  5  0  0  0  0  0  0  0  0  0  0
   -1.9074   -4.7100    0.0000 Na  0  3  0  0  0  0  0  0  0  0  0  0
    6.2376   -1.3385    0.0000 Na  0  3  0  0  0  0  0  0  0  0  0  0
  1  2  2  0  0  0  0
  2  3  1  0  0  0  0
  3  4  2  0  0  0  0
  4  5  1  0  0  0  0
  5  6  2  0  0  0  0
  1  6  1  0  0  0  0
  5  7  1  0  0  0  0
  7  8  2  0  0  0  0
  8  9  1  0  0  0  0
  9 10  2  0  0  0  0
 10 11  1  0  0  0  0
 11 12  2  0  0  0  0
 11 13  1  0  0  0  0
 13 14  2  0  0  0  0
  8 14  1  0  0  0  0
 14 15  1  0  0  0  0
 15 16  1  0  0  0  0
 16 17  2  0  0  0  0
 17 18  1  0  0  0  0
 18 19  2  0  0  0  0
 19 20  1  0  0  0  0
 20 21  2  0  0  0  0
  7 21  1  0  0  0  0
 16 21  1  0  0  0  0
 19 22  1  0  0  0  0
 18 23  1  0  0  0  0
 17 24  1  0  0  0  0
 13 25  1  0  0  0  0
 10 26  1  0  0  0  0
  4 27  1  0  0  0  0
 27 28  2  0  0  0  0
 27 29  1  0  0  0  0
M  CHG  4  23  -1  29  -1  30   1  31   1
M  END
> <#>
307

> <PLATE>
LAT004

> <ROW>
C

> <COL>
10

> <COORD>
C10

> <LATID>
LAT004C10

> <Supplier>
ICN

> <Suplier_CAT#>
190449

> <Name>
Erythrosin B

> <Concentration_(mM)>
2.5

> <IC50_(µM)>
19

> <Yeast_Active?>
-

> <Pubchem_CID>
27872

$$$$
