
  -ISIS-  08130814242D

 20 21  0  0  0  0  0  0  0  0999 V2000
    3.6042   -4.0875    0.0000 C   0  0  0  0  0  0  0  0  0  0  0  0
    5.0375   -4.0792    0.0000 C   0  0  0  0  0  0  0  0  0  0  0  0
    4.3250   -4.5000    0.0000 C   0  0  0  0  0  0  0  0  0  0  0  0
    5.7542   -4.4917    0.0000 C   0  0  0  0  0  0  0  0  0  0  0  0
    3.6042   -3.2542    0.0000 C   0  0  0  0  0  0  0  0  0  0  0  0
    2.8792   -4.5000    0.0000 C   0  0  0  0  0  0  0  0  0  0  0  0
    6.4750   -4.0792    0.0000 C   0  0  0  0  0  0  0  0  0  0  0  0
    4.3250   -5.3292    0.0000 O   0  0  0  0  0  0  0  0  0  0  0  0
    7.1917   -4.4917    0.0000 C   0  0  0  0  0  0  0  0  0  0  0  0
    2.8792   -2.8375    0.0000 C   0  0  0  0  0  0  0  0  0  0  0  0
    2.1667   -4.0875    0.0000 C   0  0  0  0  0  0  0  0  0  0  0  0
    2.1667   -3.2542    0.0000 C   0  0  0  0  0  0  0  0  0  0  0  0
    4.3167   -2.8292    0.0000 O   0  0  0  0  0  0  0  0  0  0  0  0
    1.4417   -4.4917    0.0000 Cl  0  0  0  0  0  0  0  0  0  0  0  0
    7.1917   -5.3167    0.0000 O   0  0  0  0  0  0  0  0  0  0  0  0
    6.4667   -3.2542    0.0000 C   0  0  0  0  0  0  0  0  0  0  0  0
    7.9125   -4.0792    0.0000 C   0  0  0  0  0  0  0  0  0  0  0  0
    7.9125   -5.7375    0.0000 C   0  0  0  0  0  0  0  0  0  0  0  0
    7.9125   -3.2542    0.0000 C   0  0  0  0  0  0  0  0  0  0  0  0
    7.1875   -2.8375    0.0000 C   0  0  0  0  0  0  0  0  0  0  0  0
  2  3  1  0  0  0  0
  3  1  1  0  0  0  0
  4  2  2  0  0  0  0
  5  1  1  0  0  0  0
  6  1  2  0  0  0  0
  7  4  1  0  0  0  0
  8  3  2  0  0  0  0
  9  7  2  0  0  0  0
 10  5  2  0  0  0  0
 11  6  1  0  0  0  0
 12 11  2  0  0  0  0
 13  5  1  0  0  0  0
 14 11  1  0  0  0  0
 15  9  1  0  0  0  0
 16  7  1  0  0  0  0
 17  9  1  0  0  0  0
 18 15  1  0  0  0  0
 19 20  1  0  0  0  0
 20 16  2  0  0  0  0
 12 10  1  0  0  0  0
 19 17  2  0  0  0  0
M  END
> <#>
1321

> <PLATE>
LAT017

> <ROW>
A

> <COL>
7

> <COORD>
A07

> <LATID>
LAT017A07

> <Supplier>
Chembridge

> <Suplier_CAT#>
7111905

> <Name>
Novel

> <Concentration_(mM)>
2.5

> <IC50_(µM)>
>100

> <Yeast_Active?>
-

> <Pubchem_CID>
2926622

$$$$
