
  -ISIS-  08130814242D

 21 23  0  0  0  0  0  0  0  0999 V2000
    5.7792    1.6625    0.0000 C   0  0  3  0  0  0  0  0  0  0  0  0
    5.1292    2.0375    0.0000 C   0  0  3  0  0  0  0  0  0  0  0  0
    6.4292    2.0375    0.0000 C   0  0  0  0  0  0  0  0  0  0  0  0
    4.3917    2.1708    0.0000 C   0  0  0  0  0  0  0  0  0  0  0  0
    7.0792    1.6625    0.0000 N   0  0  0  0  0  0  0  0  0  0  0  0
    5.1292    1.2875    0.0000 C   0  0  3  0  0  0  0  0  0  0  0  0
    5.7792    0.9125    0.0000 C   0  0  3  0  0  0  0  0  0  0  0  0
    8.3042    1.0208    0.0000 N   0  0  0  0  0  0  0  0  0  0  0  0
    6.4292    2.7875    0.0000 O   0  0  0  0  0  0  0  0  0  0  0  0
    3.9125    1.5958    0.0000 O   0  0  0  0  0  0  0  0  0  0  0  0
    5.7042    0.3458    0.0000 C   0  0  0  0  0  0  0  0  0  0  0  0
    6.4292    0.5375    0.0000 C   0  0  0  0  0  0  0  0  0  0  0  0
    4.4792    0.9125    0.0000 C   0  0  0  0  0  0  0  0  0  0  0  0
    5.1292    0.5375    0.0000 C   0  0  0  0  0  0  0  0  0  0  0  0
    7.6542    2.1458    0.0000 C   0  0  0  0  0  0  0  0  0  0  0  0
    8.3042    1.7708    0.0000 C   0  0  0  0  0  0  0  0  0  0  0  0
    4.1375    2.8750    0.0000 O   0  0  0  0  0  0  0  0  0  0  0  0
    8.9542    0.6458    0.0000 C   0  0  0  0  0  0  0  0  0  0  0  0
    8.9542    2.1458    0.0000 C   0  0  0  0  0  0  0  0  0  0  0  0
    9.6042    1.0208    0.0000 C   0  0  0  0  0  0  0  0  0  0  0  0
    9.6042    1.7708    0.0000 C   0  0  0  0  0  0  0  0  0  0  0  0
  2  1  1  0  0  0  0
  3  1  1  0  0  0  0
  4  2  1  0  0  0  0
  5  3  1  0  0  0  0
  6  2  1  0  0  0  0
  7  1  1  0  0  0  0
  8 16  2  0  0  0  0
  9  3  2  0  0  0  0
 10  4  2  0  0  0  0
 11 12  1  0  0  0  0
 12  7  1  0  0  0  0
 13 14  1  0  0  0  0
 14  7  1  0  0  0  0
 15  5  1  0  0  0  0
 16 15  1  0  0  0  0
 17  4  1  0  0  0  0
 18  8  1  0  0  0  0
 19 16  1  0  0  0  0
 20 21  1  0  0  0  0
 21 19  2  0  0  0  0
 13  6  1  0  0  0  0
 11  6  1  0  0  0  0
 18 20  2  0  0  0  0
M  END
> <#>
1413

> <PLATE>
LAT018

> <ROW>
E

> <COL>
8

> <COORD>
E08

> <LATID>
LAT018E08

> <Supplier>
Chembridge

> <Suplier_CAT#>
9042588

> <Name>
Novel

> <Concentration_(mM)>
2.5

> <IC50_(µM)>
39

> <Yeast_Active?>
-

> <Pubchem_CID>
6464528

$$$$
