
  -ISIS-  08130814242D

 20 21  0  0  0  0  0  0  0  0999 V2000
    2.0042    1.7208    0.0000 C   0  0  0  0  0  0  0  0  0  0  0  0
    8.0000   -1.7167    0.0000 C   0  0  0  0  0  0  0  0  0  0  0  0
    4.0042   -1.6917    0.0000 N   0  0  0  0  0  0  0  0  0  0  0  0
   10.0042   -5.1500    0.0000 C   0  0  0  0  0  0  0  0  0  0  0  0
    3.9792    5.1500    0.0000 S   0  0  0  0  0  0  0  0  0  0  0  0
   -1.9833    1.7208    0.0000 N   0  0  0  0  0  0  0  0  0  0  0  0
    9.9792    1.7208    0.0000 C   0  0  0  0  0  0  0  0  0  0  0  0
  -10.0542    8.5167    0.0000 N   0  0  0  0  0  0  0  0  0  0  0  0
   13.9750    1.7208    0.0000 C   0  0  0  0  0  0  0  0  0  0  0  0
   13.9917   -5.1500    0.0000 C   0  0  0  0  0  0  0  0  0  0  0  0
   -7.9667    5.1042    0.0000 C   0  0  0  0  0  0  0  0  0  0  0  0
   -3.9958    5.1292    0.0000 C   0  0  0  0  0  0  0  0  0  0  0  0
   15.9792   -1.6917    0.0000 C   0  0  0  0  0  0  0  0  0  0  0  0
   16.0000   -8.6375    0.0000 Cl  0  0  0  0  0  0  0  0  0  0  0  0
    8.0000    5.2167    0.0000 O   0  0  0  0  0  0  0  0  0  0  0  0
  -14.0292    8.4417    0.0000 C   0  0  0  0  0  0  0  0  0  0  0  0
   -9.9292    1.6708    0.0000 C   0  0  0  0  0  0  0  0  0  0  0  0
    9.9792    8.6292    0.0000 C   0  0  0  0  0  0  0  0  0  0  0  0
  -16.0000    4.9792    0.0000 C   0  0  0  0  0  0  0  0  0  0  0  0
  -13.9125    1.5958    0.0000 C   0  0  0  0  0  0  0  0  0  0  0  0
  2  3  1  0  0  0  0
  3  1  1  0  0  0  0
  4  2  1  0  0  0  0
  5  1  2  0  0  0  0
  6  1  1  0  0  0  0
  7  2  2  0  0  0  0
  8 11  2  0  0  0  0
  9  7  1  0  0  0  0
 10  4  2  0  0  0  0
 11 12  1  0  0  0  0
 12  6  1  0  0  0  0
 13  9  2  0  0  0  0
 14 10  1  0  0  0  0
 15  7  1  0  0  0  0
 16  8  1  0  0  0  0
 17 11  1  0  0  0  0
 18 15  1  0  0  0  0
 19 20  1  0  0  0  0
 20 17  2  0  0  0  0
 10 13  1  0  0  0  0
 19 16  2  0  0  0  0
M  END
> <#>
1429

> <PLATE>
LAT018

> <ROW>
E

> <COL>
10

> <COORD>
E10

> <LATID>
LAT018E10

> <Supplier>
Chembridge

> <Suplier_CAT#>
7813220

> <Name>
Novel

> <Concentration_(mM)>
2.5

> <IC50_(µM)>
81

> <Yeast_Active?>
-

> <Pubchem_CID>
971088

$$$$
