
  -ISIS-  08130814242D

 32 35  0  0  0  0  0  0  0  0999 V2000
    1.8750   -2.4417    0.0000 C   0  0  0  0  0  0  0  0  0  0  0  0
    0.4417   -2.4417    0.0000 C   0  0  0  0  0  0  0  0  0  0  0  0
    1.1542   -2.0292    0.0000 C   0  0  3  0  0  0  0  0  0  0  0  0
    0.4417   -3.2750    0.0000 C   0  0  0  0  0  0  0  0  0  0  0  0
    1.8750   -3.2750    0.0000 C   0  0  0  0  0  0  0  0  0  0  0  0
    1.1542   -3.6875    0.0000 N   0  0  0  0  0  0  0  0  0  0  0  0
   -0.2750   -2.0292    0.0000 C   0  0  0  0  0  0  0  0  0  0  0  0
    1.1542   -1.2000    0.0000 C   0  0  0  0  0  0  0  0  0  0  0  0
    2.5917   -2.0250    0.0000 C   0  0  0  0  0  0  0  0  0  0  0  0
   -0.2750   -3.6875    0.0000 C   0  0  0  0  0  0  0  0  0  0  0  0
   -0.9958   -3.2750    0.0000 C   0  0  3  0  0  0  0  0  0  0  0  0
   -0.9958   -2.4417    0.0000 C   0  0  0  0  0  0  0  0  0  0  0  0
   -0.2750   -1.2000    0.0000 O   0  0  0  0  0  0  0  0  0  0  0  0
    1.8750   -0.7875    0.0000 C   0  0  0  0  0  0  0  0  0  0  0  0
    2.5917   -1.1917    0.0000 O   0  0  0  0  0  0  0  0  0  0  0  0
    3.3167   -2.4417    0.0000 O   0  0  0  0  0  0  0  0  0  0  0  0
    1.8750    0.0458    0.0000 C   0  0  0  0  0  0  0  0  0  0  0  0
    2.5917   -3.6917    0.0000 C   0  0  0  0  0  0  0  0  0  0  0  0
    0.4417   -0.7875    0.0000 C   0  0  0  0  0  0  0  0  0  0  0  0
    2.5875    0.4625    0.0000 O   0  0  0  0  0  0  0  0  0  0  0  0
    4.0292   -2.0250    0.0000 C   0  0  0  0  0  0  0  0  0  0  0  0
    5.4542   -2.0167    0.0000 C   0  0  0  0  0  0  0  0  0  0  0  0
    0.4417    0.0458    0.0000 C   0  0  0  0  0  0  0  0  0  0  0  0
   -1.4125   -4.0000    0.0000 C   0  0  0  0  0  0  0  0  0  0  0  0
   -1.8125   -3.3917    0.0000 C   0  0  0  0  0  0  0  0  0  0  0  0
    4.7417   -2.4292    0.0000 C   0  0  0  0  0  0  0  0  0  0  0  0
    1.1500    0.4583    0.0000 C   0  0  0  0  0  0  0  0  0  0  0  0
    5.4500   -1.1917    0.0000 C   0  0  0  0  0  0  0  0  0  0  0  0
    6.1667   -2.4250    0.0000 C   0  0  0  0  0  0  0  0  0  0  0  0
    6.8792   -2.0042    0.0000 C   0  0  0  0  0  0  0  0  0  0  0  0
    6.1542   -0.7750    0.0000 C   0  0  0  0  0  0  0  0  0  0  0  0
    6.8792   -1.1792    0.0000 C   0  0  0  0  0  0  0  0  0  0  0  0
  2  3  1  0  0  0  0
  3  1  1  0  0  0  0
  4  6  1  0  0  0  0
  5  1  2  0  0  0  0
  6  5  1  0  0  0  0
  7  2  1  0  0  0  0
  8  3  1  0  0  0  0
  9  1  1  0  0  0  0
 10  4  1  0  0  0  0
 11 10  1  0  0  0  0
 12  7  1  0  0  0  0
 13  7  2  0  0  0  0
 14  8  2  0  0  0  0
 15  9  2  0  0  0  0
 16  9  1  0  0  0  0
 17 14  1  0  0  0  0
 18  5  1  0  0  0  0
 19  8  1  0  0  0  0
 20 17  1  0  0  0  0
 21 16  1  0  0  0  0
 22 26  1  0  0  0  0
 23 19  2  0  0  0  0
 24 11  1  0  0  0  0
 25 11  1  0  0  0  0
 26 21  1  0  0  0  0
 27 23  1  0  0  0  0
 28 22  1  0  0  0  0
 29 22  2  0  0  0  0
 30 29  1  0  0  0  0
 31 28  2  0  0  0  0
 32 30  2  0  0  0  0
  4  2  2  0  0  0  0
 11 12  1  0  0  0  0
 27 17  2  0  0  0  0
 31 32  1  0  0  0  0
M  END
> <#>
963

> <PLATE>
LAT013

> <ROW>
C

> <COL>
2

> <COORD>
C02

> <LATID>
LAT013C02

> <Supplier>
Chembridge

> <Suplier_CAT#>
5744302

> <Name>
Novel

> <Sec_Name>
236_E07

> <Concentration_(mM)>
2.5

> <IC50_(µM)>
100

> <Yeast_Active?>
-

> <Pubchem_CID>
1002721

$$$$
