
  -ISIS-  08130814242D

 21 24  0  0  0  0  0  0  0  0999 V2000
   -1.2708    1.8125    0.0000 N   0  0  3  0  0  0  0  0  0  0  0  0
   -2.6333    1.0208    0.0000 N   0  0  3  0  0  0  0  0  0  0  0  0
   -0.5958    2.2125    0.0000 C   0  0  3  0  0  0  0  0  0  0  0  0
   -3.3208    0.6458    0.0000 C   0  0  0  0  0  0  0  0  0  0  0  0
   -0.5958    2.9958    0.0000 C   0  0  0  0  0  0  0  0  0  0  0  0
    0.1375    1.9458    0.0000 C   0  0  0  0  0  0  0  0  0  0  0  0
    0.1500    3.2125    0.0000 C   0  0  0  0  0  0  0  0  0  0  0  0
    0.6042    2.5833    0.0000 C   0  0  0  0  0  0  0  0  0  0  0  0
   -4.0000    1.0458    0.0000 N   0  0  0  0  0  0  0  0  0  0  0  0
   -1.2708    1.0208    0.0000 C   0  0  0  0  0  0  0  0  0  0  0  0
   -1.9500    2.2083    0.0000 C   0  0  0  0  0  0  0  0  0  0  0  0
   -2.6333    1.8125    0.0000 C   0  0  0  0  0  0  0  0  0  0  0  0
   -1.9500    0.6208    0.0000 C   0  0  0  0  0  0  0  0  0  0  0  0
   -3.3208   -0.1542    0.0000 C   0  0  0  0  0  0  0  0  0  0  0  0
    1.3875    2.6500    0.0000 C   0  0  0  0  0  0  0  0  0  0  0  0
    0.4667    3.9333    0.0000 C   0  0  0  0  0  0  0  0  0  0  0  0
   -4.6833    0.6458    0.0000 C   0  0  0  0  0  0  0  0  0  0  0  0
   -4.0000   -0.5375    0.0000 C   0  0  0  0  0  0  0  0  0  0  0  0
   -4.6833   -0.1500    0.0000 C   0  0  0  0  0  0  0  0  0  0  0  0
    1.2375    4.0167    0.0000 C   0  0  0  0  0  0  0  0  0  0  0  0
    1.7000    3.3833    0.0000 C   0  0  0  0  0  0  0  0  0  0  0  0
  2 12  1  0  0  0  0
  3  1  1  0  0  0  0
  4  2  1  0  0  0  0
  5  3  1  0  0  0  0
  6  3  1  0  0  0  0
  7  5  1  0  0  0  0
  8  6  1  0  0  0  0
  9  4  1  0  0  0  0
 10  1  1  0  0  0  0
 11  1  1  0  0  0  0
 12 11  1  0  0  0  0
 13 10  1  0  0  0  0
 14  4  2  0  0  0  0
 15  8  1  0  0  0  0
 16  7  1  0  0  0  0
 17  9  2  0  0  0  0
 18 14  1  0  0  0  0
 19 18  2  0  0  0  0
 20 16  2  0  0  0  0
 21 15  2  0  0  0  0
  2 13  1  0  0  0  0
  7  8  2  0  0  0  0
 20 21  1  0  0  0  0
 17 19  1  0  0  0  0
M  END
> <#>
1977

> <PLATE>
LAT025

> <ROW>
A

> <COL>
9

> <COORD>
A09

> <LATID>
LAT025A09

> <Supplier>
Chembridge

> <Suplier_CAT#>
5459804

> <Sec_Name>
128_G03

> <Concentration_(mM)>
2.5

> <IC50_(µM)>
inactive

> <Yeast_Active?>
-

> <Pubchem_CID>
6456399

$$$$
