
  -ISIS-  08130814242D

 21 23  0  0  0  0  0  0  0  0999 V2000
    4.9375    2.1583    0.0000 C   0  0  0  0  0  0  0  0  0  0  0  0
    3.6792    2.9000    0.0000 C   0  0  0  0  0  0  0  0  0  0  0  0
    6.1542    2.8750    0.0000 C   0  0  0  0  0  0  0  0  0  0  0  0
    4.9292    0.7208    0.0000 C   0  0  0  0  0  0  0  0  0  0  0  0
    3.6667    0.0000    0.0000 O   0  0  0  0  0  0  0  0  0  0  0  0
    2.4375    2.1708    0.0000 C   0  0  0  0  0  0  0  0  0  0  0  0
    7.3792    2.1708    0.0000 C   0  0  0  0  0  0  0  0  0  0  0  0
    2.4417    0.7625    0.0000 C   0  0  0  0  0  0  0  0  0  0  0  0
    3.6792    4.0917    0.0000 O   0  0  0  0  0  0  0  0  0  0  0  0
    6.1542    4.0917    0.0000 O   0  0  0  0  0  0  0  0  0  0  0  0
    8.5917    2.8708    0.0000 C   0  0  0  0  0  0  0  0  0  0  0  0
    6.1417    0.0208    0.0000 C   0  0  0  0  0  0  0  0  0  0  0  0
    8.5875    4.2667    0.0000 Cl  0  0  0  0  0  0  0  0  0  0  0  0
    1.2042    2.8833    0.0000 C   0  0  0  0  0  0  0  0  0  0  0  0
    7.3667    0.7583    0.0000 C   0  0  0  0  0  0  0  0  0  0  0  0
    1.2167    0.0583    0.0000 C   0  0  0  0  0  0  0  0  0  0  0  0
    9.8042    2.1583    0.0000 C   0  0  0  0  0  0  0  0  0  0  0  0
    0.0000    2.1833    0.0000 C   0  0  0  0  0  0  0  0  0  0  0  0
    8.5792    0.0583    0.0000 C   0  0  0  0  0  0  0  0  0  0  0  0
    0.0000    0.7625    0.0000 C   0  0  0  0  0  0  0  0  0  0  0  0
    9.8042    0.7458    0.0000 C   0  0  0  0  0  0  0  0  0  0  0  0
  2  1  1  0  0  0  0
  3  1  1  0  0  0  0
  4  1  2  0  0  0  0
  5  4  1  0  0  0  0
  6  2  1  0  0  0  0
  7  3  1  0  0  0  0
  8  5  1  0  0  0  0
  9  2  2  0  0  0  0
 10  3  2  0  0  0  0
 11  7  1  0  0  0  0
 12  4  1  0  0  0  0
 13 11  1  0  0  0  0
 14  6  1  0  0  0  0
 15  7  2  0  0  0  0
 16  8  1  0  0  0  0
 17 11  2  0  0  0  0
 18 14  2  0  0  0  0
 19 15  1  0  0  0  0
 20 16  2  0  0  0  0
 21 19  2  0  0  0  0
  8  6  2  0  0  0  0
 20 18  1  0  0  0  0
 21 17  1  0  0  0  0
M  END
> <#>
1898

> <PLATE>
LAT024

> <ROW>
B

> <COL>
9

> <COORD>
B09

> <LATID>
LAT024B09

> <Supplier>
Chembridge

> <Suplier_CAT#>
5957891

> <Name>
S001 B05

> <Concentration_(mM)>
2.5

> <IC50_(µM)>
>100

> <Yeast_Active?>
-

> <Pubchem_CID>
776038

$$$$
