
  -ISIS-  08130814242D

 21 22  0  0  0  0  0  0  0  0999 V2000
    3.5750   -2.7417    0.0000 S   0  0  3  0  0  0  0  0  0  0  0  0
    1.6167   -0.8417    0.0000 C   0  0  0  0  0  0  0  0  0  0  0  0
    0.7000   -1.0417    0.0000 C   0  0  3  0  0  0  0  0  0  0  0  0
    3.8000   -2.0292    0.0000 N   0  0  0  0  0  0  0  0  0  0  0  0
    2.9542   -2.5542    0.0000 O   0  0  0  0  0  0  0  0  0  0  0  0
    4.3625   -2.8042    0.0000 O   0  0  0  0  0  0  0  0  0  0  0  0
    3.5750   -3.4917    0.0000 C   0  0  0  0  0  0  0  0  0  0  0  0
    1.9000    0.0583    0.0000 C   0  0  0  0  0  0  0  0  0  0  0  0
    2.2500   -1.5417    0.0000 C   0  0  0  0  0  0  0  0  0  0  0  0
    3.1667   -1.3417    0.0000 C   0  0  0  0  0  0  0  0  0  0  0  0
   -0.1458   -1.2167    0.0000 F   0  0  0  0  0  0  0  0  0  0  0  0
   -0.0583   -0.4375    0.0000 F   0  0  0  0  0  0  0  0  0  0  0  0
    0.2500   -1.9167    0.0000 F   0  0  0  0  0  0  0  0  0  0  0  0
    2.8167    0.2500    0.0000 C   0  0  0  0  0  0  0  0  0  0  0  0
    3.4542   -0.4417    0.0000 C   0  0  0  0  0  0  0  0  0  0  0  0
    1.2667    0.7458    0.0000 Br  0  0  0  0  0  0  0  0  0  0  0  0
    2.9292   -3.8667    0.0000 C   0  0  0  0  0  0  0  0  0  0  0  0
    4.2292   -3.8667    0.0000 C   0  0  0  0  0  0  0  0  0  0  0  0
    4.2292   -4.6250    0.0000 C   0  0  0  0  0  0  0  0  0  0  0  0
    2.9292   -4.6250    0.0000 C   0  0  0  0  0  0  0  0  0  0  0  0
    3.5750   -5.0000    0.0000 C   0  0  0  0  0  0  0  0  0  0  0  0
  2  9  1  0  0  0  0
  3  2  1  0  0  0  0
  4  1  1  0  0  0  0
  5  1  2  0  0  0  0
  6  1  2  0  0  0  0
  7  1  1  0  0  0  0
  8 14  1  0  0  0  0
  9 10  2  0  0  0  0
 10  4  1  0  0  0  0
 11  3  1  0  0  0  0
 12  3  1  0  0  0  0
 13  3  1  0  0  0  0
 14 15  2  0  0  0  0
 15 10  1  0  0  0  0
 16  8  1  0  0  0  0
 17  7  2  0  0  0  0
 18  7  1  0  0  0  0
 19 18  2  0  0  0  0
 20 17  1  0  0  0  0
 21 19  1  0  0  0  0
 20 21  2  0  0  0  0
  8  2  2  0  0  0  0
M  END
> <#>
1096

> <PLATE>
LAT014

> <ROW>
H

> <COL>
8

> <COORD>
H08

> <LATID>
LAT014H08

> <Supplier>
Chembridge

> <Suplier_CAT#>
7799157

> <Name>
Novel

> <Concentration_(mM)>
2.5

> <IC50_(µM)>
>100

> <Yeast_Active?>
-

> <Pubchem_CID>
NULL

$$$$
