
  -ISIS-  08130814242D

 17 18  0  0  0  0  0  0  0  0999 V2000
    2.0667   -2.7292    0.0000 N   0  0  0  0  0  0  0  0  0  0  0  0
    2.8167   -2.7292    0.0000 C   0  0  0  0  0  0  0  0  0  0  0  0
    3.1917   -2.0792    0.0000 C   0  0  0  0  0  0  0  0  0  0  0  0
    1.6917   -2.0792    0.0000 C   0  0  0  0  0  0  0  0  0  0  0  0
    2.8167   -1.4375    0.0000 C   0  0  0  0  0  0  0  0  0  0  0  0
    2.0667   -1.4375    0.0000 N   0  0  0  0  0  0  0  0  0  0  0  0
    3.9417   -2.0792    0.0000 C   0  0  0  0  0  0  0  0  0  0  0  0
    3.2000   -3.3875    0.0000 N   0  0  0  0  0  0  0  0  0  0  0  0
    0.9417   -2.0792    0.0000 N   0  0  0  0  0  0  0  0  0  0  0  0
    4.3167   -1.4292    0.0000 C   0  0  0  0  0  0  0  0  0  0  0  0
    4.3167   -2.7292    0.0000 C   0  0  0  0  0  0  0  0  0  0  0  0
    5.4417   -2.0792    0.0000 C   0  0  0  0  0  0  0  0  0  0  0  0
    5.0667   -2.7292    0.0000 C   0  0  0  0  0  0  0  0  0  0  0  0
    5.0667   -1.4292    0.0000 C   0  0  0  0  0  0  0  0  0  0  0  0
    6.1917   -2.0917    0.0000 Cl  0  0  0  0  0  0  0  0  0  0  0  0
    3.2042   -0.7792    0.0000 C   0  0  0  0  0  0  0  0  0  0  0  0
    3.9542   -0.7875    0.0000 C   0  0  0  0  0  0  0  0  0  0  0  0
  2  1  1  0  0  0  0
  3  2  2  0  0  0  0
  4  1  2  0  0  0  0
  5  6  2  0  0  0  0
  6  4  1  0  0  0  0
  7  3  1  0  0  0  0
  8  2  1  0  0  0  0
  9  4  1  0  0  0  0
 10  7  1  0  0  0  0
 11  7  2  0  0  0  0
 12 13  2  0  0  0  0
 13 11  1  0  0  0  0
 14 10  2  0  0  0  0
 15 12  1  0  0  0  0
 16  5  1  0  0  0  0
 17 16  1  0  0  0  0
  3  5  1  0  0  0  0
 12 14  1  0  0  0  0
M  END
> <#>
119

> <PLATE>
LAT002

> <ROW>
G

> <COL>
6

> <COORD>
G06

> <LATID>
LAT002G06

> <Supplier>
Microsource

> <Suplier_CAT#>
01500520

> <Name>
Pyrimethamine

> <Concentration_(mM)>
2.5

> <IC50_(µM)>
12

> <Yeast_Active?>
-

> <Pubchem_CID>
4993

> <Description>
Antimalarial

$$$$
