
  -ISIS-  08130814242D

 22 23  0  0  0  0  0  0  0  0999 V2000
    1.7000    2.9000    0.0000 C   0  0  0  0  0  0  0  0  0  0  0  0
    1.0167    3.2708    0.0000 C   0  0  0  0  0  0  0  0  0  0  0  0
    1.7000    2.1208    0.0000 C   0  0  0  0  0  0  0  0  0  0  0  0
   -3.9958    1.8125    0.0000 C   0  0  0  0  0  0  0  0  0  0  0  0
    0.3500    2.1208    0.0000 C   0  0  0  0  0  0  0  0  0  0  0  0
   -3.3125    2.2083    0.0000 C   0  0  0  0  0  0  0  0  0  0  0  0
    1.0167    1.7333    0.0000 C   0  0  0  0  0  0  0  0  0  0  0  0
    0.3500    2.9000    0.0000 C   0  0  0  0  0  0  0  0  0  0  0  0
   -1.2708    1.8125    0.0000 N   0  0  0  0  0  0  0  0  0  0  0  0
   -3.9958    1.0333    0.0000 O   0  0  0  0  0  0  0  0  0  0  0  0
    2.3500    1.7458    0.0000 O   0  0  0  0  0  0  0  0  0  0  0  0
    1.0167    4.0167    0.0000 O   0  0  0  0  0  0  0  0  0  0  0  0
   -0.3000    1.7458    0.0000 C   0  0  0  0  0  0  0  0  0  0  0  0
   -2.6333    1.8125    0.0000 C   0  0  0  0  0  0  0  0  0  0  0  0
   -4.6708    2.2083    0.0000 C   0  0  0  0  0  0  0  0  0  0  0  0
   -3.3125    2.9958    0.0000 C   0  0  0  0  0  0  0  0  0  0  0  0
   -1.9500    2.2083    0.0000 C   0  0  0  0  0  0  0  0  0  0  0  0
   -4.6583    0.6500    0.0000 C   0  0  0  0  0  0  0  0  0  0  0  0
    1.6667    4.4042    0.0000 C   0  0  0  0  0  0  0  0  0  0  0  0
    2.3500    0.9833    0.0000 C   0  0  0  0  0  0  0  0  0  0  0  0
   -3.9958    3.3958    0.0000 C   0  0  0  0  0  0  0  0  0  0  0  0
   -4.6708    2.9958    0.0000 C   0  0  0  0  0  0  0  0  0  0  0  0
  2  1  2  0  0  0  0
  3  1  1  0  0  0  0
  4  6  1  0  0  0  0
  5  7  1  0  0  0  0
  6 14  1  0  0  0  0
  7  3  2  0  0  0  0
  8  2  1  0  0  0  0
  9 13  1  0  0  0  0
 10  4  1  0  0  0  0
 11  3  1  0  0  0  0
 12  2  1  0  0  0  0
 13  5  1  0  0  0  0
 14 17  1  0  0  0  0
 15  4  2  0  0  0  0
 16  6  2  0  0  0  0
 17  9  1  0  0  0  0
 18 10  1  0  0  0  0
 19 12  1  0  0  0  0
 20 11  1  0  0  0  0
 21 16  1  0  0  0  0
 22 21  2  0  0  0  0
  5  8  2  0  0  0  0
 15 22  1  0  0  0  0
M  END
> <#>
680

> <PLATE>
LAT009

> <ROW>
H

> <COL>
6

> <COORD>
H06

> <LATID>
LAT009H06

> <Supplier>
Chembridge

> <Suplier_CAT#>
5548521

> <Name>
Novel

> <Sec_Name>
163_C03

> <Concentration_(mM)>
2.5

> <IC50_(µM)>
56

> <Yeast_Active?>
-

> <Pubchem_CID>
2163407

$$$$
