
  -ISIS-  08130814242D

 19 20  0  0  0  0  0  0  0  0999 V2000
    5.4917   -1.8167    0.0000 C   0  0  0  0  0  0  0  0  0  0  0  0
    6.2917   -1.4625    0.0000 C   0  0  0  0  0  0  0  0  0  0  0  0
    5.4500   -2.6167    0.0000 C   0  0  0  0  0  0  0  0  0  0  0  0
    4.4500   -1.2000    0.0000 C   0  0  0  0  0  0  0  0  0  0  0  0
    3.7542   -1.2000    0.0000 N   0  0  0  0  0  0  0  0  0  0  0  0
    6.8750   -2.7625    0.0000 C   0  0  3  0  0  0  0  0  0  0  0  0
    6.1250   -3.1000    0.0000 C   0  0  0  0  0  0  0  0  0  0  0  0
    6.9542   -1.9417    0.0000 C   0  0  0  0  0  0  0  0  0  0  0  0
    4.7000   -2.9542    0.0000 O   0  0  0  0  0  0  0  0  0  0  0  0
    6.3792   -0.6417    0.0000 O   0  0  0  0  0  0  0  0  0  0  0  0
    3.1875   -1.5167    0.0000 C   0  0  0  0  0  0  0  0  0  0  0  0
    2.5875   -1.1667    0.0000 C   0  0  0  0  0  0  0  0  0  0  0  0
    2.5875   -0.5167    0.0000 F   0  0  0  0  0  0  0  0  0  0  0  0
    7.1750   -3.3042    0.0000 C   0  0  0  0  0  0  0  0  0  0  0  0
    7.4792   -2.5167    0.0000 C   0  0  0  0  0  0  0  0  0  0  0  0
    3.1875   -2.2000    0.0000 C   0  0  0  0  0  0  0  0  0  0  0  0
    1.9875   -1.5167    0.0000 C   0  0  0  0  0  0  0  0  0  0  0  0
    2.5875   -2.5667    0.0000 C   0  0  0  0  0  0  0  0  0  0  0  0
    1.9875   -2.2000    0.0000 C   0  0  0  0  0  0  0  0  0  0  0  0
  2  1  1  0  0  0  0
  3  1  1  0  0  0  0
  4  1  2  0  0  0  0
  5  4  1  0  0  0  0
  6  7  1  0  0  0  0
  7  3  1  0  0  0  0
  8  2  1  0  0  0  0
  9  3  2  0  0  0  0
 10  2  2  0  0  0  0
 11  5  1  0  0  0  0
 12 11  2  0  0  0  0
 13 12  1  0  0  0  0
 14  6  1  0  0  0  0
 15  6  1  0  0  0  0
 16 11  1  0  0  0  0
 17 12  1  0  0  0  0
 18 16  2  0  0  0  0
 19 18  1  0  0  0  0
  6  8  1  0  0  0  0
 19 17  2  0  0  0  0
M  END
> <#>
631

> <PLATE>
LAT008

> <ROW>
G

> <COL>
10

> <COORD>
G10

> <LATID>
LAT008G10

> <Supplier>
Chembridge

> <Suplier_CAT#>
5486508

> <Name>
Novel

> <Sec_Name>
148_D03

> <Concentration_(mM)>
2.5

> <IC50_(µM)>
54

> <Yeast_Active?>
-

> <Pubchem_CID>
773011

$$$$
