
  -ISIS-  08130814242D

 18 19  0  0  0  0  0  0  0  0999 V2000
    2.0000   -2.1500    0.0000 C   0  0  0  0  0  0  0  0  0  0  0  0
    2.6000   -2.5000    0.0000 C   0  0  0  0  0  0  0  0  0  0  0  0
    2.0000   -1.4000    0.0000 C   0  0  0  0  0  0  0  0  0  0  0  0
    1.4000   -1.0542    0.0000 C   0  0  0  0  0  0  0  0  0  0  0  0
    1.4000   -2.4542    0.0000 C   0  0  0  0  0  0  0  0  0  0  0  0
    3.2500   -2.1500    0.0000 C   0  0  0  0  0  0  0  0  0  0  0  0
    2.6000   -3.2000    0.0000 O   0  0  0  0  0  0  0  0  0  0  0  0
    0.7500   -1.4000    0.0000 C   0  0  0  0  0  0  0  0  0  0  0  0
    3.2500   -1.4500    0.0000 C   0  0  0  0  0  0  0  0  0  0  0  0
    2.4000   -1.1500    0.0000 O   0  0  0  0  0  0  0  0  0  0  0  0
    0.7500   -2.1500    0.0000 C   0  0  0  0  0  0  0  0  0  0  0  0
    3.2500    0.0000    0.0000 C   0  0  0  0  0  0  0  0  0  0  0  0
    3.2500    0.6708    0.0000 F   0  0  0  0  0  0  0  0  0  0  0  0
    2.6042   -1.1000    0.0000 C   0  0  0  0  0  0  0  0  0  0  0  0
    3.8500   -1.1000    0.0000 C   0  0  0  0  0  0  0  0  0  0  0  0
    3.8500   -0.3542    0.0000 C   0  0  0  0  0  0  0  0  0  0  0  0
    2.6042   -0.3542    0.0000 C   0  0  0  0  0  0  0  0  0  0  0  0
    0.1042   -1.0500    0.0000 O   0  0  0  0  0  0  0  0  0  0  0  0
  2  1  1  0  0  0  0
  3  1  2  0  0  0  0
  4  3  1  0  0  0  0
  5  1  1  0  0  0  0
  6  2  1  0  0  0  0
  7  2  2  0  0  0  0
  8 11  1  0  0  0  0
  9  6  1  0  0  0  0
 10  3  1  0  0  0  0
 11  5  2  0  0  0  0
 12 16  1  0  0  0  0
 13 12  1  0  0  0  0
 14  9  2  0  0  0  0
 15  9  1  0  0  0  0
 16 15  2  0  0  0  0
 17 14  1  0  0  0  0
 18  8  1  0  0  0  0
  4  8  2  0  0  0  0
 17 12  2  0  0  0  0
M  END
> <#>
1277

> <PLATE>
LAT016

> <ROW>
E

> <COL>
11

> <COORD>
E11

> <LATID>
LAT016E11

> <Supplier>
Chembridge

> <Suplier_CAT#>
6664572

> <Name>
Novel

> <Concentration_(mM)>
2.5

> <IC50_(µM)>
38

> <Yeast_Active?>
-

> <Pubchem_CID>
2063467

$$$$
