
  -ISIS-  08130814242D

 20 22  0  0  0  0  0  0  0  0999 V2000
   -2.5625    1.3833    0.0000 C   0  0  0  0  0  0  0  0  0  0  0  0
   -2.5625    0.4500    0.0000 C   0  0  0  0  0  0  0  0  0  0  0  0
   -3.3708   -0.0167    0.0000 C   0  0  0  0  0  0  0  0  0  0  0  0
   -1.7500    1.8500    0.0000 N   0  0  0  0  0  0  0  0  0  0  0  0
   -3.3708    1.8500    0.0000 O   0  0  0  0  0  0  0  0  0  0  0  0
    1.5000    1.8500    0.0000 N   0  0  0  0  0  0  0  0  0  0  0  0
   -3.3708   -0.9542    0.0000 C   0  0  0  0  0  0  0  0  0  0  0  0
   -0.1333    1.8500    0.0000 C   0  0  0  0  0  0  0  0  0  0  0  0
   -0.9458    1.3833    0.0000 C   0  0  0  0  0  0  0  0  0  0  0  0
   -1.7500   -0.0167    0.0000 C   0  0  0  0  0  0  0  0  0  0  0  0
    0.6792    1.3833    0.0000 C   0  0  0  0  0  0  0  0  0  0  0  0
   -4.1833    0.4500    0.0000 C   0  0  0  0  0  0  0  0  0  0  0  0
   -1.7500   -0.9542    0.0000 C   0  0  0  0  0  0  0  0  0  0  0  0
    1.5000    2.8000    0.0000 C   0  0  0  0  0  0  0  0  0  0  0  0
   -2.5625   -1.4292    0.0000 C   0  0  0  0  0  0  0  0  0  0  0  0
   -0.1458    2.8000    0.0000 C   0  0  0  0  0  0  0  0  0  0  0  0
   -4.1833   -1.4292    0.0000 C   0  0  0  0  0  0  0  0  0  0  0  0
    0.6792    3.2708    0.0000 C   0  0  0  0  0  0  0  0  0  0  0  0
   -4.9958   -0.0167    0.0000 C   0  0  0  0  0  0  0  0  0  0  0  0
   -4.9958   -0.9542    0.0000 C   0  0  0  0  0  0  0  0  0  0  0  0
  2  1  1  0  0  0  0
  3  2  1  0  0  0  0
  4  1  1  0  0  0  0
  5  1  2  0  0  0  0
  6 11  1  0  0  0  0
  7  3  2  0  0  0  0
  8  9  1  0  0  0  0
  9  4  1  0  0  0  0
 10  2  2  0  0  0  0
 11  8  2  0  0  0  0
 12  3  1  0  0  0  0
 13 10  1  0  0  0  0
 14 18  1  0  0  0  0
 15 13  2  0  0  0  0
 16  8  1  0  0  0  0
 17  7  1  0  0  0  0
 18 16  2  0  0  0  0
 19 12  2  0  0  0  0
 20 19  1  0  0  0  0
  7 15  1  0  0  0  0
 17 20  2  0  0  0  0
 14  6  2  0  0  0  0
M  END
> <#>
2047

> <PLATE>
LAT026

> <ROW>
G

> <COL>
7

> <COORD>
G07

> <LATID>
LAT026G07

> <Supplier>
Chembridge

> <Suplier_CAT#>
5548057

> <Sec_Name>
162_C06

> <Concentration_(mM)>
2.5

> <IC50_(µM)>
>100

> <Yeast_Active?>
-

> <Pubchem_CID>
683863

$$$$
