
  -ISIS-  08130814242D

 24 26  0  0  0  0  0  0  0  0999 V2000
   -0.5958    0.8458    0.0000 C   0  0  3  0  0  0  0  0  0  0  0  0
    0.2292    0.3125    0.0000 C   0  0  0  0  0  0  0  0  0  0  0  0
   -1.3208    0.2208    0.0000 C   0  0  0  0  0  0  0  0  0  0  0  0
   -0.9958   -0.6375    0.0000 C   0  0  0  0  0  0  0  0  0  0  0  0
   -0.0708   -0.6375    0.0000 C   0  0  0  0  0  0  0  0  0  0  0  0
    1.0500    1.1708    0.0000 C   0  0  0  0  0  0  0  0  0  0  0  0
    1.9542    0.8625    0.0000 C   0  0  0  0  0  0  0  0  0  0  0  0
    3.5875    1.1833    0.0000 N   0  0  3  0  0  0  0  0  0  0  0  0
    0.1375    1.4833    0.0000 C   0  0  0  0  0  0  0  0  0  0  0  0
   -1.4208    1.3458    0.0000 O   0  0  0  0  0  0  0  0  0  0  0  0
    3.4167    2.1458    0.0000 C   0  0  3  0  0  0  0  0  0  0  0  0
    2.8667    0.5500    0.0000 C   0  0  0  0  0  0  0  0  0  0  0  0
    1.2000    0.5125    0.0000 C   0  0  0  0  0  0  0  0  0  0  0  0
   -2.3208    0.3500    0.0000 C   0  0  0  0  0  0  0  0  0  0  0  0
    0.6375   -1.3542    0.0000 C   0  0  0  0  0  0  0  0  0  0  0  0
   -1.5833   -1.4375    0.0000 C   0  0  0  0  0  0  0  0  0  0  0  0
    4.5000    0.8708    0.0000 C   0  0  0  0  0  0  0  0  0  0  0  0
    4.1500    2.7708    0.0000 C   0  0  0  0  0  0  0  0  0  0  0  0
    2.5167    2.4708    0.0000 C   0  0  0  0  0  0  0  0  0  0  0  0
    5.2500    1.5000    0.0000 C   0  0  0  0  0  0  0  0  0  0  0  0
    1.8792   -0.1875    0.0000 C   0  0  0  0  0  0  0  0  0  0  0  0
   -2.9208   -0.4000    0.0000 C   0  0  0  0  0  0  0  0  0  0  0  0
   -2.5708   -1.3000    0.0000 C   0  0  0  0  0  0  0  0  0  0  0  0
    1.6000   -1.1167    0.0000 C   0  0  0  0  0  0  0  0  0  0  0  0
  2  1  1  0  0  0  0
  3  1  1  0  0  0  0
  4  3  2  0  0  0  0
  5  2  2  0  0  0  0
  6  9  1  0  0  0  0
  7  6  3  0  0  0  0
  8 12  1  0  0  0  0
  9  1  1  0  0  0  0
 10  1  1  0  0  0  0
 11  8  1  0  0  0  0
 12  7  1  0  0  0  0
 13  2  1  0  0  0  0
 14  3  1  0  0  0  0
 15  5  1  0  0  0  0
 16  4  1  0  0  0  0
 17  8  1  0  0  0  0
 18 11  1  0  0  0  0
 19 11  1  0  0  0  0
 20 17  1  0  0  0  0
 21 13  2  0  0  0  0
 22 14  2  0  0  0  0
 23 22  1  0  0  0  0
 24 21  1  0  0  0  0
  5  4  1  0  0  0  0
 23 16  2  0  0  0  0
 24 15  2  0  0  0  0
M  END
> <#>
1040

> <PLATE>
LAT013

> <ROW>
H

> <COL>
11

> <COORD>
H11

> <LATID>
LAT013H11

> <Supplier>
Chembridge

> <Suplier_CAT#>
6787022

> <Name>
Novel

> <Concentration_(mM)>
2.5

> <IC50_(µM)>
inactive

> <Yeast_Active?>
-

> <Pubchem_CID>
1612068

$$$$
