
  -ISIS-  08130814242D

 16 17  0  0  0  0  0  0  0  0999 V2000
    8.0167   -2.2667    0.0000 C   0  0  0  0  0  0  0  0  0  0  0  0
    8.6750   -1.8792    0.0000 C   0  0  0  0  0  0  0  0  0  0  0  0
    7.3667   -3.4292    0.0000 N   0  0  0  0  0  0  0  0  0  0  0  0
    8.8292   -1.1292    0.0000 O   0  0  0  0  0  0  0  0  0  0  0  0
    8.0250   -3.0375    0.0000 N   0  0  0  0  0  0  0  0  0  0  0  0
    7.3417   -1.8875    0.0000 O   0  0  0  0  0  0  0  0  0  0  0  0
    9.3417   -2.2625    0.0000 C   0  0  0  0  0  0  0  0  0  0  0  0
    9.5917   -1.0500    0.0000 C   0  0  0  0  0  0  0  0  0  0  0  0
    6.0542   -5.7500    0.0000 N   0  0  0  0  0  0  0  0  0  0  0  0
    9.9125   -1.7417    0.0000 C   0  0  0  0  0  0  0  0  0  0  0  0
    7.3792   -4.1917    0.0000 C   0  0  0  0  0  0  0  0  0  0  0  0
    6.7167   -4.5917    0.0000 C   0  0  0  0  0  0  0  0  0  0  0  0
    6.7167   -5.3667    0.0000 C   0  0  0  0  0  0  0  0  0  0  0  0
    5.3917   -5.3625    0.0000 C   0  0  0  0  0  0  0  0  0  0  0  0
    6.0667   -4.2125    0.0000 C   0  0  0  0  0  0  0  0  0  0  0  0
    5.4000   -4.5917    0.0000 C   0  0  0  0  0  0  0  0  0  0  0  0
  2  1  1  0  0  0  0
  3  5  1  0  0  0  0
  4  2  1  0  0  0  0
  5  1  1  0  0  0  0
  6  1  2  0  0  0  0
  7  2  2  0  0  0  0
  8  4  1  0  0  0  0
  9 13  2  0  0  0  0
 10  7  1  0  0  0  0
 11  3  2  0  0  0  0
 12 11  1  0  0  0  0
 13 12  1  0  0  0  0
 14 16  2  0  0  0  0
 15 12  2  0  0  0  0
 16 15  1  0  0  0  0
  8 10  2  0  0  0  0
 14  9  1  0  0  0  0
M  END
> <#>
1879

> <PLATE>
LAT024

> <ROW>
G

> <COL>
6

> <COORD>
G06

> <LATID>
LAT024G06

> <Supplier>
Pharmeks

> <Suplier_CAT#>
PHAR116171

> <Name>
Novel

> <Concentration_(mM)>
2.5

> <IC50_(µM)>
>100

> <Yeast_Active?>
-

> <Pubchem_CID>
796665

$$$$
