
  -ISIS-  08130814242D

 14 14  0  0  0  0  0  0  0  0999 V2000
    1.8982    0.2777    0.0000 C   0  0  0  0  0  0  0  0  0  0  0  0
    0.8156    0.9027    0.0000 C   0  0  3  0  0  0  0  0  0  0  0  0
    1.4406    1.9853    0.0000 C   0  0  0  0  0  0  0  0  0  0  0  0
    0.1906   -0.1798    0.0000 O   0  0  0  0  0  0  0  0  0  0  0  0
   -1.0594   -0.1798    0.0000 C   0  0  0  0  0  0  0  0  0  0  0  0
   -1.6844   -1.2623    0.0000 C   0  0  0  0  0  0  0  0  0  0  0  0
   -2.9344   -1.2623    0.0000 C   0  0  0  0  0  0  0  0  0  0  0  0
   -3.5594   -0.1798    0.0000 C   0  0  0  0  0  0  0  0  0  0  0  0
   -2.9344    0.9027    0.0000 C   0  0  0  0  0  0  0  0  0  0  0  0
   -1.6844    0.9027    0.0000 C   0  0  0  0  0  0  0  0  0  0  0  0
   -4.8094   -0.1798    0.0000 Cl  0  0  0  0  0  0  0  0  0  0  0  0
   -0.2669    1.5277    0.0000 C   0  0  0  0  0  0  0  0  0  0  0  0
    1.8982   -0.9723    0.0000 O   0  0  0  0  0  0  0  0  0  0  0  0
    2.9807    0.9027    0.0000 O   0  0  0  0  0  0  0  0  0  0  0  0
  1  2  1  0  0  0  0
  2  3  1  0  0  0  0
  2  4  1  0  0  0  0
  4  5  1  0  0  0  0
  5  6  2  0  0  0  0
  6  7  1  0  0  0  0
  7  8  2  0  0  0  0
  8  9  1  0  0  0  0
  9 10  2  0  0  0  0
  5 10  1  0  0  0  0
  8 11  1  0  0  0  0
  2 12  1  0  0  0  0
  1 13  2  0  0  0  0
  1 14  1  0  0  0  0
M  END
> <#>
440

> <PLATE>
LAT006

> <ROW>
H

> <COL>
6

> <COORD>
H06

> <LATID>
LAT006H06

> <Supplier>
Sigma

> <Suplier_CAT#>
C-7142

> <Name>
Clofibric Acid

> <Concentration_(mM)>
2.5

> <IC50_(µM)>
>100

> <Yeast_Active?>
-

> <Pubchem_CID>
2797

$$$$
