
  -ISIS-  08130814242D

 20 21  0  0  0  0  0  0  0  0999 V2000
    0.1042   -0.0917    0.0000 S   0  0  3  0  0  0  0  0  0  0  0  0
    0.9250   -0.1167    0.0000 C   0  0  0  0  0  0  0  0  0  0  0  0
    1.3167   -0.8417    0.0000 C   0  0  0  0  0  0  0  0  0  0  0  0
    2.1417   -0.8542    0.0000 C   0  0  0  0  0  0  0  0  0  0  0  0
   -0.7208   -0.0917    0.0000 N   0  0  0  0  0  0  0  0  0  0  0  0
    1.3500    0.5833    0.0000 C   0  0  0  0  0  0  0  0  0  0  0  0
    0.5042   -0.8167    0.0000 O   0  0  0  0  0  0  0  0  0  0  0  0
    0.5292    0.6083    0.0000 O   0  0  0  0  0  0  0  0  0  0  0  0
    2.5750   -0.1542    0.0000 C   0  0  0  0  0  0  0  0  0  0  0  0
   -2.3708   -0.0667    0.0000 N   0  0  0  0  0  0  0  0  0  0  0  0
   -1.1333    0.6333    0.0000 C   0  0  0  0  0  0  0  0  0  0  0  0
    2.1667    0.5708    0.0000 C   0  0  0  0  0  0  0  0  0  0  0  0
    0.8917   -1.5417    0.0000 Cl  0  0  0  0  0  0  0  0  0  0  0  0
    2.5542   -1.5667    0.0000 Cl  0  0  0  0  0  0  0  0  0  0  0  0
   -1.9583    0.6458    0.0000 C   0  0  0  0  0  0  0  0  0  0  0  0
    3.4000   -0.1500    0.0000 Cl  0  0  0  0  0  0  0  0  0  0  0  0
   -3.1958   -0.0625    0.0000 C   0  0  0  0  0  0  0  0  0  0  0  0
   -2.3625    1.3625    0.0000 C   0  0  0  0  0  0  0  0  0  0  0  0
   -3.6083    0.6583    0.0000 C   0  0  0  0  0  0  0  0  0  0  0  0
   -3.1833    1.3708    0.0000 C   0  0  0  0  0  0  0  0  0  0  0  0
  2  1  1  0  0  0  0
  3  2  2  0  0  0  0
  4  3  1  0  0  0  0
  5  1  1  0  0  0  0
  6  2  1  0  0  0  0
  7  1  2  0  0  0  0
  8  1  2  0  0  0  0
  9 12  1  0  0  0  0
 10 15  1  0  0  0  0
 11  5  1  0  0  0  0
 12  6  2  0  0  0  0
 13  3  1  0  0  0  0
 14  4  1  0  0  0  0
 15 11  1  0  0  0  0
 16  9  1  0  0  0  0
 17 10  2  0  0  0  0
 18 15  2  0  0  0  0
 19 20  2  0  0  0  0
 20 18  1  0  0  0  0
  4  9  2  0  0  0  0
 17 19  1  0  0  0  0
M  END
> <#>
1943

> <PLATE>
LAT025

> <ROW>
G

> <COL>
4

> <COORD>
G04

> <LATID>
LAT025G04

> <Supplier>
Chembridge

> <Suplier_CAT#>
6389995

> <Name>
Novel

> <Concentration_(mM)>
2.5

> <IC50_(µM)>
25

> <Yeast_Active?>
-

> <Pubchem_CID>
2279109

$$$$
