
  -ISIS-  08130814242D

 21 23  0  0  0  0  0  0  0  0999 V2000
    8.1500    1.9250    0.0000 C   0  0  0  0  0  0  0  0  0  0  0  0
    7.4625    2.2333    0.0000 O   0  0  0  0  0  0  0  0  0  0  0  0
    6.9625    1.6750    0.0000 C   0  0  0  0  0  0  0  0  0  0  0  0
    8.0667    1.1833    0.0000 C   0  0  0  0  0  0  0  0  0  0  0  0
    8.8000    2.3000    0.0000 C   0  0  0  0  0  0  0  0  0  0  0  0
    7.3375    1.0250    0.0000 C   0  0  0  0  0  0  0  0  0  0  0  0
    9.4500    1.9250    0.0000 N   0  0  0  0  0  0  0  0  0  0  0  0
    6.2125    1.6750    0.0000 C   0  0  0  0  0  0  0  0  0  0  0  0
   10.7417    1.1750    0.0000 N   0  0  0  0  0  0  0  0  0  0  0  0
    8.8000    3.0500    0.0000 O   0  0  0  0  0  0  0  0  0  0  0  0
   10.0917    2.3000    0.0000 C   0  0  0  0  0  0  0  0  0  0  0  0
   10.7417    1.9250    0.0000 C   0  0  0  0  0  0  0  0  0  0  0  0
    5.8375    2.3333    0.0000 O   0  0  0  0  0  0  0  0  0  0  0  0
    6.9625    0.3750    0.0000 C   0  0  0  0  0  0  0  0  0  0  0  0
    6.2125    0.3750    0.0000 C   0  0  0  0  0  0  0  0  0  0  0  0
   11.3917    0.8000    0.0000 C   0  0  0  0  0  0  0  0  0  0  0  0
    5.8375    1.0250    0.0000 C   0  0  0  0  0  0  0  0  0  0  0  0
   11.3917    2.3000    0.0000 C   0  0  0  0  0  0  0  0  0  0  0  0
    5.0875    2.3333    0.0000 C   0  0  0  0  0  0  0  0  0  0  0  0
   12.0417    1.1750    0.0000 C   0  0  0  0  0  0  0  0  0  0  0  0
   12.0417    1.9250    0.0000 C   0  0  0  0  0  0  0  0  0  0  0  0
  2  1  1  0  0  0  0
  3  2  1  0  0  0  0
  4  1  2  0  0  0  0
  5  1  1  0  0  0  0
  6  4  1  0  0  0  0
  7  5  1  0  0  0  0
  8  3  1  0  0  0  0
  9 12  1  0  0  0  0
 10  5  2  0  0  0  0
 11  7  1  0  0  0  0
 12 11  1  0  0  0  0
 13  8  1  0  0  0  0
 14  6  1  0  0  0  0
 15 14  2  0  0  0  0
 16  9  2  0  0  0  0
 17  8  2  0  0  0  0
 18 12  2  0  0  0  0
 19 13  1  0  0  0  0
 20 21  2  0  0  0  0
 21 18  1  0  0  0  0
  3  6  2  0  0  0  0
 15 17  1  0  0  0  0
 20 16  1  0  0  0  0
M  END
> <#>
1427

> <PLATE>
LAT018

> <ROW>
C

> <COL>
10

> <COORD>
C10

> <LATID>
LAT018C10

> <Supplier>
Chembridge

> <Suplier_CAT#>
9062907

> <Name>
Novel

> <Concentration_(mM)>
2.5

> <IC50_(µM)>
>100

> <Yeast_Active?>
-

> <Pubchem_CID>
6472317

$$$$
