
  -ISIS-  08130814242D

 29 32  0  0  0  0  0  0  0  0999 V2000
    1.5292   -3.1125    0.0000 N   0  0  3  0  0  0  0  0  0  0  0  0
    0.1667   -3.1125    0.0000 C   0  0  0  0  0  0  0  0  0  0  0  0
    0.8500   -2.7167    0.0000 C   0  0  3  0  0  0  0  0  0  0  0  0
    0.1667   -3.9042    0.0000 C   0  0  0  0  0  0  0  0  0  0  0  0
    0.8500   -1.9417    0.0000 C   0  0  0  0  0  0  0  0  0  0  0  0
   -0.5125   -2.7167    0.0000 C   0  0  0  0  0  0  0  0  0  0  0  0
   -1.2000   -3.1125    0.0000 C   0  0  0  0  0  0  0  0  0  0  0  0
   -0.5125   -4.3000    0.0000 C   0  0  0  0  0  0  0  0  0  0  0  0
   -1.1958   -3.9042    0.0000 C   0  0  0  0  0  0  0  0  0  0  0  0
    2.2417   -2.7000    0.0000 C   0  0  0  0  0  0  0  0  0  0  0  0
    1.5292   -3.9042    0.0000 C   0  0  0  0  0  0  0  0  0  0  0  0
    0.1750   -1.5542    0.0000 C   0  0  0  0  0  0  0  0  0  0  0  0
    0.8500   -4.3042    0.0000 C   0  0  0  0  0  0  0  0  0  0  0  0
    2.9625   -3.1125    0.0000 C   0  0  0  0  0  0  0  0  0  0  0  0
    0.1667   -0.7667    0.0000 C   0  0  0  0  0  0  0  0  0  0  0  0
    4.3000   -3.8917    0.0000 C   0  0  0  0  0  0  0  0  0  0  0  0
   -1.9125   -2.7000    0.0000 O   0  0  0  0  0  0  0  0  0  0  0  0
   -1.9125   -4.3167    0.0000 O   0  0  0  0  0  0  0  0  0  0  0  0
   -0.5458   -0.3625    0.0000 Cl  0  0  0  0  0  0  0  0  0  0  0  0
    1.5292   -1.5500    0.0000 C   0  0  0  0  0  0  0  0  0  0  0  0
    3.6292   -2.7167    0.0000 C   0  0  0  0  0  0  0  0  0  0  0  0
    2.9625   -3.8917    0.0000 C   0  0  0  0  0  0  0  0  0  0  0  0
    3.6292   -4.2792    0.0000 C   0  0  0  0  0  0  0  0  0  0  0  0
    4.3000   -3.1125    0.0000 C   0  0  0  0  0  0  0  0  0  0  0  0
    4.9500   -4.2792    0.0000 O   0  0  0  0  0  0  0  0  0  0  0  0
    1.5292   -0.7667    0.0000 C   0  0  0  0  0  0  0  0  0  0  0  0
    0.8500   -0.3750    0.0000 C   0  0  0  0  0  0  0  0  0  0  0  0
   -1.9208   -1.8750    0.0000 C   0  0  0  0  0  0  0  0  0  0  0  0
   -2.6250   -3.9125    0.0000 C   0  0  0  0  0  0  0  0  0  0  0  0
  2  3  1  0  0  0  0
  3  1  1  0  0  0  0
  4 13  1  0  0  0  0
  5  3  1  0  0  0  0
  6  2  1  0  0  0  0
  7  6  2  0  0  0  0
  8  4  1  0  0  0  0
  9  8  2  0  0  0  0
 10  1  1  0  0  0  0
 11  1  1  0  0  0  0
 12  5  1  0  0  0  0
 13 11  1  0  0  0  0
 14 10  1  0  0  0  0
 15 12  2  0  0  0  0
 16 23  2  0  0  0  0
 17  7  1  0  0  0  0
 18  9  1  0  0  0  0
 19 15  1  0  0  0  0
 20  5  2  0  0  0  0
 21 14  1  0  0  0  0
 22 14  2  0  0  0  0
 23 22  1  0  0  0  0
 24 21  2  0  0  0  0
 25 16  1  0  0  0  0
 26 20  1  0  0  0  0
 27 26  2  0  0  0  0
 28 17  1  0  0  0  0
 29 18  1  0  0  0  0
  2  4  2  0  0  0  0
 16 24  1  0  0  0  0
  7  9  1  0  0  0  0
 15 27  1  0  0  0  0
M  END
> <#>
1817

> <PLATE>
LAT023

> <ROW>
A

> <COL>
9

> <COORD>
A09

> <LATID>
LAT023A09

> <Supplier>
Chembridge

> <Suplier_CAT#>
5641691

> <Name>
Novel

> <Sec_Name>
195_A11

> <Concentration_(mM)>
2.5

> <IC50_(µM)>
15

> <Yeast_Active?>
-

> <Pubchem_CID>
2254083

$$$$
