
  -ISIS-  08130814242D

 17 19  0  0  0  0  0  0  0  0999 V2000
    3.7651   -4.8719    0.0000 C   0  0  0  0  0  0  0  0  0  0  0  0
    2.6826   -5.4969    0.0000 C   0  0  0  0  0  0  0  0  0  0  0  0
    1.6000   -4.8719    0.0000 C   0  0  0  0  0  0  0  0  0  0  0  0
    1.6000   -3.6219    0.0000 C   0  0  0  0  0  0  0  0  0  0  0  0
    2.6826   -2.9969    0.0000 C   0  0  0  0  0  0  0  0  0  0  0  0
    2.6826   -1.7469    0.0000 C   0  0  0  0  0  0  0  0  0  0  0  0
    3.7651   -1.1219    0.0000 C   0  0  0  0  0  0  0  0  0  0  0  0
    3.7651    0.1281    0.0000 C   0  0  0  0  0  0  0  0  0  0  0  0
    4.8476    0.7531    0.0000 C   0  0  0  0  0  0  0  0  0  0  0  0
    5.9302    0.1281    0.0000 C   0  0  0  0  0  0  0  0  0  0  0  0
    5.9302   -1.1219    0.0000 C   0  0  0  0  0  0  0  0  0  0  0  0
    4.8476   -1.7469    0.0000 C   0  0  0  0  0  0  0  0  0  0  0  0
    4.8476   -2.9969    0.0000 C   0  0  0  0  0  0  0  0  0  0  0  0
    3.7651   -3.6219    0.0000 C   0  0  0  0  0  0  0  0  0  0  0  0
    5.9302   -3.6219    0.0000 C   0  0  0  0  0  0  0  0  0  0  0  0
    5.9302   -4.8719    0.0000 O   0  0  0  0  0  0  0  0  0  0  0  0
    7.0127   -2.9969    0.0000 O   0  0  0  0  0  0  0  0  0  0  0  0
  1  2  1  0  0  0  0
  2  3  2  0  0  0  0
  3  4  1  0  0  0  0
  4  5  2  0  0  0  0
  5  6  1  0  0  0  0
  6  7  2  0  0  0  0
  7  8  1  0  0  0  0
  8  9  2  0  0  0  0
  9 10  1  0  0  0  0
 10 11  2  0  0  0  0
 11 12  1  0  0  0  0
  7 12  1  0  0  0  0
 12 13  2  0  0  0  0
 13 14  1  0  0  0  0
  5 14  1  0  0  0  0
  1 14  2  0  0  0  0
 15 16  2  0  0  0  0
 15 17  1  0  0  0  0
 13 15  1  0  0  0  0
M  END
> <#>
316

> <PLATE>
LAT004

> <ROW>
D

> <COL>
11

> <COORD>
D11

> <LATID>
LAT004D11

> <Supplier>
Sigma

> <Suplier_CAT#>
A-4678

> <Name>
Anthracene-9-Carboxylic Acid

> <Concentration_(mM)>
2.5

> <IC50_(µM)>
>100

> <Yeast_Active?>
-

> <Pubchem_CID>
2201

$$$$
