
  -ISIS-  08130814242D

 22 25  0  0  0  0  0  0  0  0999 V2000
    0.1292    0.9083    0.0000 N   0  0  3  0  0  0  0  0  0  0  0  0
   -0.6208    0.9083    0.0000 C   0  0  0  0  0  0  0  0  0  0  0  0
   -1.0625    1.5125    0.0000 N   0  0  0  0  0  0  0  0  0  0  0  0
    0.5667    0.3000    0.0000 C   0  0  0  0  0  0  0  0  0  0  0  0
    0.5667    1.5125    0.0000 C   0  0  0  0  0  0  0  0  0  0  0  0
   -1.7833    1.2833    0.0000 C   0  0  0  0  0  0  0  0  0  0  0  0
   -1.7833    0.5333    0.0000 N   0  0  0  0  0  0  0  0  0  0  0  0
   -1.0625    0.3000    0.0000 N   0  0  0  0  0  0  0  0  0  0  0  0
    1.2792    1.2833    0.0000 C   0  0  0  0  0  0  0  0  0  0  0  0
    1.2792    0.5333    0.0000 C   0  0  0  0  0  0  0  0  0  0  0  0
   -2.3833    1.7208    0.0000 C   0  0  0  0  0  0  0  0  0  0  0  0
    0.3375    2.2250    0.0000 O   0  0  0  0  0  0  0  0  0  0  0  0
    0.3375   -0.4125    0.0000 O   0  0  0  0  0  0  0  0  0  0  0  0
   -2.9125    2.9083    0.0000 N   0  0  0  0  0  0  0  0  0  0  0  0
   -2.3083    2.4708    0.0000 C   0  0  0  0  0  0  0  0  0  0  0  0
    1.9292    0.1583    0.0000 C   0  0  0  0  0  0  0  0  0  0  0  0
    1.9292    1.6583    0.0000 C   0  0  0  0  0  0  0  0  0  0  0  0
   -3.0708    1.4208    0.0000 C   0  0  0  0  0  0  0  0  0  0  0  0
   -3.5958    2.6083    0.0000 C   0  0  0  0  0  0  0  0  0  0  0  0
   -3.6750    1.8583    0.0000 C   0  0  0  0  0  0  0  0  0  0  0  0
    2.5792    1.2833    0.0000 C   0  0  0  0  0  0  0  0  0  0  0  0
    2.5792    0.5333    0.0000 C   0  0  0  0  0  0  0  0  0  0  0  0
  2  1  1  0  0  0  0
  3  2  2  0  0  0  0
  4  1  1  0  0  0  0
  5  1  1  0  0  0  0
  6  3  1  0  0  0  0
  7  8  1  0  0  0  0
  8  2  1  0  0  0  0
  9  5  1  0  0  0  0
 10  4  1  0  0  0  0
 11  6  1  0  0  0  0
 12  5  2  0  0  0  0
 13  4  2  0  0  0  0
 14 15  2  0  0  0  0
 15 11  1  0  0  0  0
 16 10  2  0  0  0  0
 17  9  2  0  0  0  0
 18 11  2  0  0  0  0
 19 20  2  0  0  0  0
 20 18  1  0  0  0  0
 21 17  1  0  0  0  0
 22 16  1  0  0  0  0
 10  9  1  0  0  0  0
  7  6  2  0  0  0  0
 21 22  2  0  0  0  0
 14 19  1  0  0  0  0
M  END
> <#>
1701

> <PLATE>
LAT022

> <ROW>
E

> <COL>
4

> <COORD>
E04

> <LATID>
LAT022E04

> <Supplier>
Chembridge

> <Suplier_CAT#>
7961990

> <Name>
Novel

> <Concentration_(mM)>
2.5

> <IC50_(µM)>
inactive

> <Yeast_Active?>
-

> <Pubchem_CID>
NULL

$$$$
