
  -ISIS-  08130814242D

 23 25  0  0  0  0  0  0  0  0999 V2000
    3.5042   -3.2792    0.0000 C   0  0  0  0  0  0  0  0  0  0  0  0
    6.3667   -0.7917    0.0000 C   0  0  0  0  0  0  0  0  0  0  0  0
    5.6542   -1.2042    0.0000 C   0  0  0  0  0  0  0  0  0  0  0  0
    4.9417   -0.7917    0.0000 C   0  0  0  0  0  0  0  0  0  0  0  0
    4.2167   -1.2125    0.0000 C   0  0  0  0  0  0  0  0  0  0  0  0
    4.2167   -2.0417    0.0000 C   0  0  0  0  0  0  0  0  0  0  0  0
    3.5042   -2.4542    0.0000 C   0  0  0  0  0  0  0  0  0  0  0  0
    2.7917   -3.6917    0.0000 C   0  0  0  0  0  0  0  0  0  0  0  0
    5.6542   -2.0292    0.0000 O   0  0  0  0  0  0  0  0  0  0  0  0
    6.3667    0.0333    0.0000 C   0  0  0  0  0  0  0  0  0  0  0  0
    4.2250   -3.6917    0.0000 C   0  0  0  0  0  0  0  0  0  0  0  0
    4.9417    0.0333    0.0000 C   0  0  0  0  0  0  0  0  0  0  0  0
    5.6542    0.4458    0.0000 C   0  0  0  0  0  0  0  0  0  0  0  0
    7.0875   -2.0167    0.0000 O   0  0  0  0  0  0  0  0  0  0  0  0
    2.7917   -2.0417    0.0000 O   0  0  0  0  0  0  0  0  0  0  0  0
    6.3750   -2.4375    0.0000 C   0  0  0  0  0  0  0  0  0  0  0  0
    2.7917   -4.5250    0.0000 C   0  0  0  0  0  0  0  0  0  0  0  0
    4.2250   -4.5250    0.0000 C   0  0  0  0  0  0  0  0  0  0  0  0
    7.0792   -1.1917    0.0000 C   0  0  0  0  0  0  0  0  0  0  0  0
    5.6500    1.2708    0.0000 Cl  0  0  0  0  0  0  0  0  0  0  0  0
    3.5042   -4.9375    0.0000 C   0  0  0  0  0  0  0  0  0  0  0  0
    4.9375   -4.9375    0.0000 F   0  0  0  0  0  0  0  0  0  0  0  0
    2.0667   -3.2750    0.0000 O   0  0  0  0  0  0  0  0  0  0  0  0
  2  3  1  0  0  0  0
  3  4  2  0  0  0  0
  4  5  1  0  0  0  0
  5  6  2  0  0  0  0
  6  7  1  0  0  0  0
  7  1  1  0  0  0  0
  8  1  2  0  0  0  0
  9  3  1  0  0  0  0
 10 13  1  0  0  0  0
 11  1  1  0  0  0  0
 12  4  1  0  0  0  0
 13 12  2  0  0  0  0
 14 16  1  0  0  0  0
 15  7  2  0  0  0  0
 16  9  1  0  0  0  0
 17  8  1  0  0  0  0
 18 11  2  0  0  0  0
 19  2  1  0  0  0  0
 20 13  1  0  0  0  0
 21 18  1  0  0  0  0
 22 18  1  0  0  0  0
 23  8  1  0  0  0  0
 17 21  2  0  0  0  0
  2 10  2  0  0  0  0
 14 19  1  0  0  0  0
M  END
> <#>
1300

> <PLATE>
LAT017

> <ROW>
D

> <COL>
4

> <COORD>
D04

> <LATID>
LAT017D04

> <Supplier>
Chembridge

> <Suplier_CAT#>
7017368

> <Name>
Novel

> <Concentration_(mM)>
2.5

> <IC50_(µM)>
inactive

> <Yeast_Active?>
-

> <Pubchem_CID>
2924029

$$$$
