
  -ISIS-  08130814242D

 22 23  0  0  0  0  0  0  0  0999 V2000
   -1.4792    0.0000    0.0000 C   0  0  0  0  0  0  0  0  0  0  0  0
   -2.1292    0.3792    0.0000 C   0  0  0  0  0  0  0  0  0  0  0  0
    0.4708    0.3792    0.0000 C   0  0  0  0  0  0  0  0  0  0  0  0
   -2.7792    0.0000    0.0000 C   0  0  0  0  0  0  0  0  0  0  0  0
   -0.8292    0.3792    0.0000 O   0  0  0  0  0  0  0  0  0  0  0  0
    1.1208    0.0000    0.0000 N   0  0  0  0  0  0  0  0  0  0  0  0
   -1.4792   -0.7500    0.0000 C   0  0  0  0  0  0  0  0  0  0  0  0
    3.0667   -1.1208    0.0000 N   0  0  0  0  0  0  0  0  0  0  0  0
    0.4708    1.1250    0.0000 O   0  0  0  0  0  0  0  0  0  0  0  0
    2.4167    0.0000    0.0000 C   0  0  0  0  0  0  0  0  0  0  0  0
   -0.1792    0.0000    0.0000 C   0  0  0  0  0  0  0  0  0  0  0  0
    1.7708    0.3792    0.0000 C   0  0  0  0  0  0  0  0  0  0  0  0
   -2.1292    1.1250    0.0000 C   0  0  3  0  0  0  0  0  0  0  0  0
   -2.7792   -0.7500    0.0000 C   0  0  0  0  0  0  0  0  0  0  0  0
   -2.1292   -1.1208    0.0000 C   0  0  0  0  0  0  0  0  0  0  0  0
    2.4167   -0.7500    0.0000 C   0  0  0  0  0  0  0  0  0  0  0  0
    3.7167   -0.7500    0.0000 C   0  0  0  0  0  0  0  0  0  0  0  0
    3.0667    0.3792    0.0000 C   0  0  0  0  0  0  0  0  0  0  0  0
   -1.4792    1.5000    0.0000 C   0  0  0  0  0  0  0  0  0  0  0  0
   -2.7792    1.5000    0.0000 C   0  0  0  0  0  0  0  0  0  0  0  0
   -2.1292   -1.8750    0.0000 C   0  0  0  0  0  0  0  0  0  0  0  0
    3.7167    0.0000    0.0000 C   0  0  0  0  0  0  0  0  0  0  0  0
  2  1  1  0  0  0  0
  3 11  1  0  0  0  0
  4  2  2  0  0  0  0
  5  1  1  0  0  0  0
  6  3  1  0  0  0  0
  7  1  2  0  0  0  0
  8 16  2  0  0  0  0
  9  3  2  0  0  0  0
 10 12  1  0  0  0  0
 11  5  1  0  0  0  0
 12  6  1  0  0  0  0
 13  2  1  0  0  0  0
 14 15  2  0  0  0  0
 15  7  1  0  0  0  0
 16 10  1  0  0  0  0
 17  8  1  0  0  0  0
 18 10  2  0  0  0  0
 19 13  1  0  0  0  0
 20 13  1  0  0  0  0
 21 15  1  0  0  0  0
 22 18  1  0  0  0  0
 14  4  1  0  0  0  0
 17 22  2  0  0  0  0
M  END
> <#>
1874

> <PLATE>
LAT024

> <ROW>
B

> <COL>
6

> <COORD>
B06

> <LATID>
LAT024B06

> <Supplier>
Asinex

> <Suplier_CAT#>
BAS 02919189

> <Name>
Novel

> <Concentration_(mM)>
2.5

> <IC50_(µM)>
>100

> <Yeast_Active?>
-

> <Pubchem_CID>
2282731

$$$$
