
  -ISIS-  08130814242D

 28 31  0  0  0  0  0  0  0  0999 V2000
   -1.5208   -0.5667    0.0000 C   0  0  0  0  0  0  0  0  0  0  0  0
   -0.7458   -1.0292    0.0000 N   0  0  0  0  0  0  0  0  0  0  0  0
   -1.5208    0.3333    0.0000 N   0  0  0  0  0  0  0  0  0  0  0  0
   -0.7458    0.7958    0.0000 C   0  0  0  0  0  0  0  0  0  0  0  0
    0.0375   -0.5667    0.0000 C   0  0  0  0  0  0  0  0  0  0  0  0
    0.0375    0.3333    0.0000 C   0  0  0  0  0  0  0  0  0  0  0  0
    1.6167   -0.5667    0.0000 N   0  0  0  0  0  0  0  0  0  0  0  0
   -2.3000   -1.0292    0.0000 C   0  0  0  0  0  0  0  0  0  0  0  0
    0.8375   -1.0292    0.0000 N   0  0  0  0  0  0  0  0  0  0  0  0
   -0.7458    1.6958    0.0000 C   0  0  0  0  0  0  0  0  0  0  0  0
    3.9542    0.7958    0.0000 N   0  0  0  0  0  0  0  0  0  0  0  0
    2.4000   -1.0292    0.0000 C   0  0  0  0  0  0  0  0  0  0  0  0
   -2.3000   -1.9500    0.0000 C   0  0  0  0  0  0  0  0  0  0  0  0
   -3.0833   -0.5667    0.0000 C   0  0  0  0  0  0  0  0  0  0  0  0
    3.1792   -0.5667    0.0000 C   0  0  0  0  0  0  0  0  0  0  0  0
   -3.8625   -1.9500    0.0000 C   0  0  0  0  0  0  0  0  0  0  0  0
   -3.8625   -1.0292    0.0000 C   0  0  0  0  0  0  0  0  0  0  0  0
   -3.0833   -2.3875    0.0000 C   0  0  0  0  0  0  0  0  0  0  0  0
   -4.6625   -2.4042    0.0000 Br  0  0  0  0  0  0  0  0  0  0  0  0
    3.1792    0.3333    0.0000 C   0  0  0  0  0  0  0  0  0  0  0  0
    4.7375    0.3333    0.0000 C   0  0  0  0  0  0  0  0  0  0  0  0
   -1.5208    2.1500    0.0000 C   0  0  0  0  0  0  0  0  0  0  0  0
    0.0375    2.1500    0.0000 C   0  0  0  0  0  0  0  0  0  0  0  0
    3.9542   -1.0292    0.0000 C   0  0  0  0  0  0  0  0  0  0  0  0
    4.7375   -0.5667    0.0000 C   0  0  0  0  0  0  0  0  0  0  0  0
   -1.5208    3.0500    0.0000 C   0  0  0  0  0  0  0  0  0  0  0  0
    0.0375    3.0500    0.0000 C   0  0  0  0  0  0  0  0  0  0  0  0
   -0.7458    3.5208    0.0000 C   0  0  0  0  0  0  0  0  0  0  0  0
  2  1  2  0  0  0  0
  3  1  1  0  0  0  0
  4  3  2  0  0  0  0
  5  2  1  0  0  0  0
  6  4  1  0  0  0  0
  7  9  1  0  0  0  0
  8  1  1  0  0  0  0
  9  5  1  0  0  0  0
 10  4  1  0  0  0  0
 11 20  1  0  0  0  0
 12  7  2  0  0  0  0
 13  8  1  0  0  0  0
 14  8  2  0  0  0  0
 15 12  1  0  0  0  0
 16 17  2  0  0  0  0
 17 14  1  0  0  0  0
 18 13  2  0  0  0  0
 19 16  1  0  0  0  0
 20 15  2  0  0  0  0
 21 25  1  0  0  0  0
 22 10  1  0  0  0  0
 23 10  2  0  0  0  0
 24 15  1  0  0  0  0
 25 24  2  0  0  0  0
 26 22  2  0  0  0  0
 27 23  1  0  0  0  0
 28 27  2  0  0  0  0
 18 16  1  0  0  0  0
  5  6  2  0  0  0  0
 28 26  1  0  0  0  0
 11 21  2  0  0  0  0
M  END
> <#>
1596

> <PLATE>
LAT020

> <ROW>
D

> <COL>
11

> <COORD>
D11

> <LATID>
LAT020D11

> <Supplier>
Chembridge

> <Suplier_CAT#>
5256540

> <Name>
Novel

> <Concentration_(mM)>
2.5

> <IC50_(µM)>
inactive

> <Yeast_Active?>
-

> <Pubchem_CID>
2837803

$$$$
