
  -ISIS-  08130814242D

 27 30  0  0  0  0  0  0  0  0999 V2000
   -1.8500   -1.0167    0.0000 C   0  0  0  0  0  0  0  0  0  0  0  0
   -2.4333   -0.6875    0.0000 C   0  0  0  0  0  0  0  0  0  0  0  0
   -1.8500   -1.6792    0.0000 C   0  0  0  0  0  0  0  0  0  0  0  0
   -0.6958   -1.0167    0.0000 C   0  0  0  0  0  0  0  0  0  0  0  0
   -1.2708   -0.6875    0.0000 C   0  0  0  0  0  0  0  0  0  0  0  0
   -2.4333   -2.0042    0.0000 C   0  0  0  0  0  0  0  0  0  0  0  0
   -0.1125   -0.6875    0.0000 C   0  0  0  0  0  0  0  0  0  0  0  0
   -3.0125   -1.0167    0.0000 C   0  0  0  0  0  0  0  0  0  0  0  0
   -3.0125   -1.6792    0.0000 C   0  0  0  0  0  0  0  0  0  0  0  0
   -0.1125   -0.0292    0.0000 N   0  0  0  0  0  0  0  0  0  0  0  0
   -0.6958   -1.6792    0.0000 C   0  0  0  0  0  0  0  0  0  0  0  0
   -1.2708   -2.0042    0.0000 C   0  0  0  0  0  0  0  0  0  0  0  0
    0.4500    0.2958    0.0000 C   0  0  0  0  0  0  0  0  0  0  0  0
   -2.4333   -0.0292    0.0000 O   0  0  0  0  0  0  0  0  0  0  0  0
   -2.4333   -2.6667    0.0000 O   0  0  0  0  0  0  0  0  0  0  0  0
    0.4667   -1.0167    0.0000 O   0  0  0  0  0  0  0  0  0  0  0  0
    0.4292    0.9333    0.0000 C   0  0  0  0  0  0  0  0  0  0  0  0
   -1.2708   -0.0292    0.0000 O   0  0  0  0  0  0  0  0  0  0  0  0
   -3.5958   -0.6875    0.0000 C   0  0  0  0  0  0  0  0  0  0  0  0
   -3.5958   -2.0042    0.0000 C   0  0  0  0  0  0  0  0  0  0  0  0
    1.0292   -0.0167    0.0000 C   0  0  0  0  0  0  0  0  0  0  0  0
   -0.1500    1.2125    0.0000 C   0  0  0  0  0  0  0  0  0  0  0  0
    0.9875    1.2958    0.0000 C   0  0  0  0  0  0  0  0  0  0  0  0
   -4.1708   -1.0167    0.0000 C   0  0  0  0  0  0  0  0  0  0  0  0
   -4.1708   -1.6792    0.0000 C   0  0  0  0  0  0  0  0  0  0  0  0
    1.5792    0.3208    0.0000 C   0  0  0  0  0  0  0  0  0  0  0  0
    1.5542    0.9833    0.0000 C   0  0  0  0  0  0  0  0  0  0  0  0
  2  1  1  0  0  0  0
  3  1  2  0  0  0  0
  4  5  2  0  0  0  0
  5  1  1  0  0  0  0
  6  3  1  0  0  0  0
  7  4  1  0  0  0  0
  8  2  1  0  0  0  0
  9  6  1  0  0  0  0
 10  7  1  0  0  0  0
 11  4  1  0  0  0  0
 12  3  1  0  0  0  0
 13 10  1  0  0  0  0
 14  2  2  0  0  0  0
 15  6  2  0  0  0  0
 16  7  2  0  0  0  0
 17 13  1  0  0  0  0
 18  5  1  0  0  0  0
 19  8  1  0  0  0  0
 20  9  1  0  0  0  0
 21 13  2  0  0  0  0
 22 17  1  0  0  0  0
 23 17  2  0  0  0  0
 24 19  2  0  0  0  0
 25 20  2  0  0  0  0
 26 21  1  0  0  0  0
 27 26  2  0  0  0  0
 11 12  2  0  0  0  0
  8  9  2  0  0  0  0
 24 25  1  0  0  0  0
 27 23  1  0  0  0  0
M  END
> <#>
1203

> <PLATE>
LAT016

> <ROW>
C

> <COL>
2

> <COORD>
C02

> <LATID>
LAT016C02

> <Supplier>
Chembridge

> <Suplier_CAT#>
5813388

> <Name>
Novel

> <Concentration_(mM)>
2.5

> <IC50_(µM)>
inactive

> <Yeast_Active?>
-

> <Pubchem_CID>
NULL

$$$$
