
  -ISIS-  08130814242D

 22 24  0  0  0  0  0  0  0  0999 V2000
    1.5000    1.0833    0.0000 C   0  0  0  0  0  0  0  0  0  0  0  0
    2.1542    0.7208    0.0000 N   0  3  0  0  0  0  0  0  0  0  0  0
   -0.7625    0.5333    0.0000 C   0  0  0  0  0  0  0  0  0  0  0  0
   -1.6000   -0.3792    0.0000 C   0  0  0  0  0  0  0  0  0  0  0  0
   -0.3625   -0.1167    0.0000 C   0  0  0  0  0  0  0  0  0  0  0  0
   -0.9000   -0.7000    0.0000 O   0  0  0  0  0  0  0  0  0  0  0  0
   -1.5208    0.3958    0.0000 C   0  0  0  0  0  0  0  0  0  0  0  0
    0.8500    0.7125    0.0000 O   0  0  0  0  0  0  0  0  0  0  0  0
    0.3000    1.3000    0.0000 C   0  0  0  0  0  0  0  0  0  0  0  0
   -0.4500    1.2208    0.0000 C   0  0  0  0  0  0  0  0  0  0  0  0
    1.4000    1.8708    0.0000 C   0  0  0  0  0  0  0  0  0  0  0  0
    0.6500    1.9958    0.0000 C   0  0  0  0  0  0  0  0  0  0  0  0
   -2.2458   -0.7792    0.0000 C   0  0  0  0  0  0  0  0  0  0  0  0
    2.1542   -0.0167    0.0000 O   0  5  0  0  0  0  0  0  0  0  0  0
    2.8000    1.1333    0.0000 O   0  0  0  0  0  0  0  0  0  0  0  0
    0.3667   -0.1792    0.0000 O   0  0  0  0  0  0  0  0  0  0  0  0
   -2.2458   -1.5500    0.0000 C   0  0  0  0  0  0  0  0  0  0  0  0
   -2.8833   -0.4000    0.0000 C   0  0  0  0  0  0  0  0  0  0  0  0
   -3.5208   -1.5500    0.0000 C   0  0  0  0  0  0  0  0  0  0  0  0
   -2.8833   -1.9042    0.0000 C   0  0  0  0  0  0  0  0  0  0  0  0
   -3.5208   -0.7792    0.0000 C   0  0  0  0  0  0  0  0  0  0  0  0
   -4.1625   -1.9292    0.0000 Br  0  0  0  0  0  0  0  0  0  0  0  0
  2  1  1  0  0  0  0
  3 10  2  0  0  0  0
  4  7  2  0  0  0  0
  5  3  1  0  0  0  0
  6  5  1  0  0  0  0
  7  3  1  0  0  0  0
  8  1  1  0  0  0  0
  9  8  1  0  0  0  0
 10  9  1  0  0  0  0
 11  1  2  0  0  0  0
 12 11  1  0  0  0  0
 13  4  1  0  0  0  0
 14  2  1  0  0  0  0
 15  2  2  0  0  0  0
 16  5  2  0  0  0  0
 17 13  2  0  0  0  0
 18 13  1  0  0  0  0
 19 21  1  0  0  0  0
 20 17  1  0  0  0  0
 21 18  2  0  0  0  0
 22 19  1  0  0  0  0
 12  9  2  0  0  0  0
  6  4  1  0  0  0  0
 20 19  2  0  0  0  0
M  CHG  2   2   1  14  -1
M  END
> <#>
2018

> <PLATE>
LAT026

> <ROW>
B

> <COL>
4

> <COORD>
B04

> <LATID>
LAT026B04

> <Supplier>
Chembridge

> <Suplier_CAT#>
5667063

> <Sec_Name>
209_E03

> <Concentration_(mM)>
2.5

> <IC50_(µM)>
inactive

> <Yeast_Active?>
-

> <Pubchem_CID>
NULL

$$$$
