
  -ISIS-  08130814242D

 30 32  0  0  0  0  0  0  0  0999 V2000
   -1.4708   -0.8042    0.0000 N   0  0  3  0  0  0  0  0  0  0  0  0
   -0.8125   -0.3292    0.0000 C   0  0  0  0  0  0  0  0  0  0  0  0
   -1.0500    0.4708    0.0000 N   0  0  0  0  0  0  0  0  0  0  0  0
   -1.8708    0.4708    0.0000 N   0  0  0  0  0  0  0  0  0  0  0  0
   -2.1333   -0.3042    0.0000 N   0  0  0  0  0  0  0  0  0  0  0  0
    2.4042    1.6500    0.0000 C   0  0  0  0  0  0  0  0  0  0  0  0
    3.3667    0.6125    0.0000 C   0  0  0  0  0  0  0  0  0  0  0  0
    3.1875    1.3958    0.0000 C   0  0  0  0  0  0  0  0  0  0  0  0
    1.9875    0.3125    0.0000 C   0  0  0  0  0  0  0  0  0  0  0  0
    1.8042    1.0958    0.0000 C   0  0  0  0  0  0  0  0  0  0  0  0
    2.7667    0.0500    0.0000 C   0  0  0  0  0  0  0  0  0  0  0  0
   -0.0125   -0.5667    0.0000 S   0  0  0  0  0  0  0  0  0  0  0  0
    1.3875   -0.2667    0.0000 C   0  0  0  0  0  0  0  0  0  0  0  0
    2.2500    2.4708    0.0000 C   0  0  3  0  0  0  0  0  0  0  0  0
    4.1667    0.3958    0.0000 C   0  0  3  0  0  0  0  0  0  0  0  0
   -1.4708   -1.6292    0.0000 C   0  0  0  0  0  0  0  0  0  0  0  0
    0.5875   -0.0042    0.0000 C   0  0  0  0  0  0  0  0  0  0  0  0
    1.5667   -1.0500    0.0000 O   0  0  0  0  0  0  0  0  0  0  0  0
    3.7875    1.9708    0.0000 O   0  0  0  0  0  0  0  0  0  0  0  0
    2.1042    3.2958    0.0000 C   0  0  0  0  0  0  0  0  0  0  0  0
    1.4292    2.3333    0.0000 C   0  0  0  0  0  0  0  0  0  0  0  0
    4.9667    0.1708    0.0000 C   0  0  0  0  0  0  0  0  0  0  0  0
    4.3875    1.1958    0.0000 C   0  0  0  0  0  0  0  0  0  0  0  0
    3.9500   -0.4042    0.0000 C   0  0  0  0  0  0  0  0  0  0  0  0
    3.0667    2.6333    0.0000 C   0  0  0  0  0  0  0  0  0  0  0  0
   -2.1833   -2.0667    0.0000 C   0  0  0  0  0  0  0  0  0  0  0  0
   -0.7500   -2.0500    0.0000 C   0  0  0  0  0  0  0  0  0  0  0  0
   -0.7500   -2.8792    0.0000 C   0  0  0  0  0  0  0  0  0  0  0  0
   -2.1833   -2.8792    0.0000 C   0  0  0  0  0  0  0  0  0  0  0  0
   -1.4625   -3.3042    0.0000 C   0  0  0  0  0  0  0  0  0  0  0  0
  2  1  1  0  0  0  0
  3  2  2  0  0  0  0
  4  5  2  0  0  0  0
  5  1  1  0  0  0  0
  6 10  2  0  0  0  0
  7 11  1  0  0  0  0
  8  7  2  0  0  0  0
  9 13  1  0  0  0  0
 10  9  1  0  0  0  0
 11  9  2  0  0  0  0
 12  2  1  0  0  0  0
 13 17  1  0  0  0  0
 14  6  1  0  0  0  0
 15  7  1  0  0  0  0
 16  1  1  0  0  0  0
 17 12  1  0  0  0  0
 18 13  2  0  0  0  0
 19  8  1  0  0  0  0
 20 14  1  0  0  0  0
 21 14  1  0  0  0  0
 22 15  1  0  0  0  0
 23 15  1  0  0  0  0
 24 15  1  0  0  0  0
 25 14  1  0  0  0  0
 26 16  2  0  0  0  0
 27 16  1  0  0  0  0
 28 27  2  0  0  0  0
 29 26  1  0  0  0  0
 30 28  1  0  0  0  0
  4  3  1  0  0  0  0
 30 29  2  0  0  0  0
  6  8  1  0  0  0  0
M  END
> <#>
1159

> <PLATE>
LAT015

> <ROW>
G

> <COL>
6

> <COORD>
G06

> <LATID>
LAT015G06

> <Supplier>
Chembridge

> <Suplier_CAT#>
5144196

> <Name>
Novel

> <Concentration_(mM)>
2.5

> <IC50_(µM)>
inactive

> <Yeast_Active?>
-

> <Pubchem_CID>
2054513

$$$$
