
  -ISIS-  08130814242D

 21 23  0  0  0  0  0  0  0  0999 V2000
    4.4917   -4.3125    0.0000 C   0  0  0  0  0  0  0  0  0  0  0  0
    5.2292   -3.9042    0.0000 C   0  0  3  0  0  0  0  0  0  0  0  0
    6.5042   -3.9417    0.0000 C   0  0  0  0  0  0  0  0  0  0  0  0
    5.8542   -4.3167    0.0000 N   0  0  0  0  0  0  0  0  0  0  0  0
    4.4917   -5.0667    0.0000 C   0  0  0  0  0  0  0  0  0  0  0  0
    6.5042   -3.1917    0.0000 O   0  0  0  0  0  0  0  0  0  0  0  0
    5.2375   -3.1292    0.0000 C   0  0  0  0  0  0  0  0  0  0  0  0
    3.8417   -5.4375    0.0000 C   0  0  0  0  0  0  0  0  0  0  0  0
    7.1417   -4.3167    0.0000 N   0  0  0  0  0  0  0  0  0  0  0  0
    3.8417   -3.9292    0.0000 C   0  0  0  0  0  0  0  0  0  0  0  0
    5.1417   -5.4417    0.0000 C   0  0  0  0  0  0  0  0  0  0  0  0
    3.1917   -4.3125    0.0000 C   0  0  0  0  0  0  0  0  0  0  0  0
    3.1917   -5.0667    0.0000 C   0  0  0  0  0  0  0  0  0  0  0  0
    4.5875   -2.7542    0.0000 C   0  0  0  0  0  0  0  0  0  0  0  0
    5.8917   -2.7542    0.0000 C   0  0  0  0  0  0  0  0  0  0  0  0
    3.8375   -6.1875    0.0000 C   0  0  0  0  0  0  0  0  0  0  0  0
    5.1375   -6.1917    0.0000 C   0  0  0  0  0  0  0  0  0  0  0  0
    4.5875   -2.0000    0.0000 C   0  0  0  0  0  0  0  0  0  0  0  0
    5.8917   -2.0000    0.0000 C   0  0  0  0  0  0  0  0  0  0  0  0
    4.4875   -6.5667    0.0000 C   0  0  0  0  0  0  0  0  0  0  0  0
    5.2375   -1.6167    0.0000 C   0  0  0  0  0  0  0  0  0  0  0  0
  2  1  1  0  0  0  0
  3  4  1  0  0  0  0
  4  2  1  0  0  0  0
  5  1  2  0  0  0  0
  6  3  2  0  0  0  0
  7  2  1  0  0  0  0
  8  5  1  0  0  0  0
  9  3  1  0  0  0  0
 10  1  1  0  0  0  0
 11  5  1  0  0  0  0
 12 10  2  0  0  0  0
 13 12  1  0  0  0  0
 14  7  2  0  0  0  0
 15  7  1  0  0  0  0
 16  8  1  0  0  0  0
 17 11  2  0  0  0  0
 18 14  1  0  0  0  0
 19 15  2  0  0  0  0
 20 17  1  0  0  0  0
 21 19  1  0  0  0  0
 13  8  2  0  0  0  0
 16 20  2  0  0  0  0
 18 21  2  0  0  0  0
M  END
> <#>
678

> <PLATE>
LAT009

> <ROW>
F

> <COL>
6

> <COORD>
F06

> <LATID>
LAT009F06

> <Supplier>
Chembridge

> <Suplier_CAT#>
5546284

> <Name>
Novel

> <Sec_Name>
161_G04

> <Concentration_(mM)>
2.5

> <IC50_(µM)>
23

> <Yeast_Active?>
-

> <Pubchem_CID>
871505

$$$$
