
  -ISIS-  08130814242D

 23 25  0  0  0  0  0  0  0  0999 V2000
    4.5875   -0.7167    0.0000 C   0  0  0  0  0  0  0  0  0  0  0  0
    5.1292   -1.2292    0.0000 N   0  0  0  0  0  0  0  0  0  0  0  0
    4.9167   -0.0292    0.0000 N   0  0  0  0  0  0  0  0  0  0  0  0
    5.8167   -0.8875    0.0000 C   0  0  0  0  0  0  0  0  0  0  0  0
    5.6667   -0.1167    0.0000 C   0  0  0  0  0  0  0  0  0  0  0  0
    2.5667   -0.5875    0.0000 C   0  0  0  0  0  0  0  0  0  0  0  0
    1.2667   -0.2542    0.0000 N   0  0  0  0  0  0  0  0  0  0  0  0
    3.8292   -0.9292    0.0000 S   0  0  0  0  0  0  0  0  0  0  0  0
    2.0042   -0.0500    0.0000 N   0  0  0  0  0  0  0  0  0  0  0  0
    2.3667   -1.3292    0.0000 O   0  0  0  0  0  0  0  0  0  0  0  0
    3.3042   -0.4000    0.0000 C   0  0  0  0  0  0  0  0  0  0  0  0
    0.7292    0.2833    0.0000 C   0  0  0  0  0  0  0  0  0  0  0  0
   -0.5333    0.6208    0.0000 C   0  0  0  0  0  0  0  0  0  0  0  0
    0.0042    0.0708    0.0000 C   0  0  0  0  0  0  0  0  0  0  0  0
   -1.2833    0.4125    0.0000 C   0  0  0  0  0  0  0  0  0  0  0  0
   -1.8333    0.9333    0.0000 Br  0  0  0  0  0  0  0  0  0  0  0  0
    6.5542   -1.1375    0.0000 C   0  0  0  0  0  0  0  0  0  0  0  0
    6.2875    0.3500    0.0000 C   0  0  0  0  0  0  0  0  0  0  0  0
   -0.9500   -0.8500    0.0000 C   0  0  0  0  0  0  0  0  0  0  0  0
   -1.4958   -0.3042    0.0000 C   0  0  0  0  0  0  0  0  0  0  0  0
   -0.2000   -0.6542    0.0000 C   0  0  0  0  0  0  0  0  0  0  0  0
    7.1542   -0.6292    0.0000 C   0  0  0  0  0  0  0  0  0  0  0  0
    7.0042    0.1500    0.0000 C   0  0  0  0  0  0  0  0  0  0  0  0
  2  1  2  0  0  0  0
  3  1  1  0  0  0  0
  4  2  1  0  0  0  0
  5  3  1  0  0  0  0
  6 11  1  0  0  0  0
  7  9  1  0  0  0  0
  8  1  1  0  0  0  0
  9  6  1  0  0  0  0
 10  6  2  0  0  0  0
 11  8  1  0  0  0  0
 12  7  2  0  0  0  0
 13 14  2  0  0  0  0
 14 12  1  0  0  0  0
 15 13  1  0  0  0  0
 16 15  1  0  0  0  0
 17  4  1  0  0  0  0
 18  5  1  0  0  0  0
 19 21  2  0  0  0  0
 20 19  1  0  0  0  0
 21 14  1  0  0  0  0
 22 17  2  0  0  0  0
 23 18  2  0  0  0  0
  4  5  2  0  0  0  0
 22 23  1  0  0  0  0
 20 15  2  0  0  0  0
M  END
> <#>
1862

> <PLATE>
LAT024

> <ROW>
F

> <COL>
4

> <COORD>
F04

> <LATID>
LAT024F04

> <Supplier>
Chembridge

> <Suplier_CAT#>
5773254

> <Name>
Novel

> <Sec_Name>
244_G04

> <Concentration_(mM)>
2.5

> <IC50_(µM)>
8

> <Yeast_Active?>
-

> <Pubchem_CID>
NULL

$$$$
