
  -ISIS-  08130814242D

 32 36  0  0  0  0  0  0  0  0999 V2000
    1.2375    0.5458    0.0000 N   0  0  0  0  0  0  0  0  0  0  0  0
    0.5292    1.7708    0.0000 C   0  0  0  0  0  0  0  0  0  0  0  0
    0.5292    0.9625    0.0000 C   0  0  0  0  0  0  0  0  0  0  0  0
   -3.0333   -0.2667    0.0000 C   0  0  0  0  0  0  0  0  0  0  0  0
   -2.3208   -0.6792    0.0000 C   0  0  0  0  0  0  0  0  0  0  0  0
   -2.3208    0.9625    0.0000 N   0  0  0  0  0  0  0  0  0  0  0  0
   -3.0333    0.5458    0.0000 C   0  0  0  0  0  0  0  0  0  0  0  0
    1.9375    0.9625    0.0000 C   0  0  0  0  0  0  0  0  0  0  0  0
   -1.6125    0.5458    0.0000 C   0  0  0  0  0  0  0  0  0  0  0  0
    1.2375    2.1958    0.0000 C   0  0  0  0  0  0  0  0  0  0  0  0
    1.9375    1.7708    0.0000 C   0  0  0  0  0  0  0  0  0  0  0  0
   -0.8833    1.7708    0.0000 N   0  0  0  0  0  0  0  0  0  0  0  0
   -1.6125   -0.2667    0.0000 C   0  0  0  0  0  0  0  0  0  0  0  0
   -3.7333   -0.6792    0.0000 C   0  0  0  0  0  0  0  0  0  0  0  0
   -0.1833    2.1958    0.0000 C   0  0  0  0  0  0  0  0  0  0  0  0
   -0.8833    0.9625    0.0000 N   0  0  0  0  0  0  0  0  0  0  0  0
   -2.3208   -1.4875    0.0000 C   0  0  0  0  0  0  0  0  0  0  0  0
    2.6500    0.5458    0.0000 C   0  0  0  0  0  0  0  0  0  0  0  0
   -3.7333    0.9625    0.0000 C   0  0  0  0  0  0  0  0  0  0  0  0
    2.6500    2.1958    0.0000 C   0  0  0  0  0  0  0  0  0  0  0  0
   -0.2000    0.5458    0.0000 Cl  0  0  0  0  0  0  0  0  0  0  0  0
   -4.4458   -0.2667    0.0000 C   0  0  0  0  0  0  0  0  0  0  0  0
    3.3542    0.9625    0.0000 C   0  0  0  0  0  0  0  0  0  0  0  0
   -4.4458    0.5458    0.0000 C   0  0  0  0  0  0  0  0  0  0  0  0
    3.3542    1.7708    0.0000 C   0  0  0  0  0  0  0  0  0  0  0  0
   -5.1708   -0.6792    0.0000 Br  0  0  0  0  0  0  0  0  0  0  0  0
   -1.6125   -1.9042    0.0000 C   0  0  0  0  0  0  0  0  0  0  0  0
   -3.0333   -1.9042    0.0000 C   0  0  0  0  0  0  0  0  0  0  0  0
    4.0667    0.5458    0.0000 C   0  0  0  0  0  0  0  0  0  0  0  0
   -1.6125   -2.7167    0.0000 C   0  0  0  0  0  0  0  0  0  0  0  0
   -3.0333   -2.7167    0.0000 C   0  0  0  0  0  0  0  0  0  0  0  0
   -2.3208   -3.1375    0.0000 C   0  0  0  0  0  0  0  0  0  0  0  0
  2  3  1  0  0  0  0
  3  1  2  0  0  0  0
  4  5  1  0  0  0  0
  5 13  2  0  0  0  0
  6  9  2  0  0  0  0
  7  6  1  0  0  0  0
  8  1  1  0  0  0  0
  9 16  1  0  0  0  0
 10 11  1  0  0  0  0
 11  8  2  0  0  0  0
 12 15  2  0  0  0  0
 13  9  1  0  0  0  0
 14  4  1  0  0  0  0
 15  2  1  0  0  0  0
 16 12  1  0  0  0  0
 17  5  1  0  0  0  0
 18  8  1  0  0  0  0
 19  7  1  0  0  0  0
 20 11  1  0  0  0  0
 21  3  1  0  0  0  0
 22 14  2  0  0  0  0
 23 18  2  0  0  0  0
 24 19  2  0  0  0  0
 25 23  1  0  0  0  0
 26 22  1  0  0  0  0
 27 17  1  0  0  0  0
 28 17  2  0  0  0  0
 29 23  1  0  0  0  0
 30 27  2  0  0  0  0
 31 28  1  0  0  0  0
 32 31  2  0  0  0  0
 10  2  2  0  0  0  0
 20 25  2  0  0  0  0
  7  4  2  0  0  0  0
 24 22  1  0  0  0  0
 30 32  1  0  0  0  0
M  END
> <#>
1666

> <PLATE>
LAT021

> <ROW>
B

> <COL>
10

> <COORD>
B10

> <LATID>
LAT021B10

> <Supplier>
Chembridge

> <Suplier_CAT#>
5481023

> <Name>
Novel

> <Concentration_(mM)>
2.5

> <IC50_(µM)>
>100

> <Yeast_Active?>
-

> <Pubchem_CID>
2848614

$$$$
