
  -ISIS-  08130814242D

 25 28  0  0  0  0  0  0  0  0999 V2000
    3.4792   -5.9167    0.0000 N   0  0  0  0  0  0  0  0  0  0  0  0
    3.0292   -5.2750    0.0000 C   0  0  0  0  0  0  0  0  0  0  0  0
    4.2250   -5.6792    0.0000 C   0  0  0  0  0  0  0  0  0  0  0  0
    3.4792   -4.6167    0.0000 S   0  0  0  0  0  0  0  0  0  0  0  0
    6.9625   -4.8875    0.0000 N   0  0  3  0  0  0  0  0  0  0  0  0
    4.2250   -4.8667    0.0000 C   0  0  0  0  0  0  0  0  0  0  0  0
    5.6000   -5.6750    0.0000 N   0  0  3  0  0  0  0  0  0  0  0  0
    7.6417   -4.4875    0.0000 C   0  0  0  0  0  0  0  0  0  0  0  0
    4.9125   -6.0667    0.0000 C   0  0  0  0  0  0  0  0  0  0  0  0
    2.2375   -5.2042    0.0000 C   0  0  0  0  0  0  0  0  0  0  0  0
    6.2792   -4.4917    0.0000 C   0  0  0  0  0  0  0  0  0  0  0  0
    6.9625   -5.6750    0.0000 C   0  0  0  0  0  0  0  0  0  0  0  0
    8.3167   -4.8875    0.0000 C   0  0  0  0  0  0  0  0  0  0  0  0
    7.6500   -3.7042    0.0000 C   0  0  0  0  0  0  0  0  0  0  0  0
    6.2792   -6.0750    0.0000 C   0  0  0  0  0  0  0  0  0  0  0  0
    5.6000   -4.8917    0.0000 C   0  0  0  0  0  0  0  0  0  0  0  0
    9.0125   -3.7167    0.0000 C   0  0  0  0  0  0  0  0  0  0  0  0
    8.3292   -3.3167    0.0000 C   0  0  0  0  0  0  0  0  0  0  0  0
    9.0042   -4.5000    0.0000 C   0  0  0  0  0  0  0  0  0  0  0  0
    9.7292   -3.3042    0.0000 Cl  0  0  0  0  0  0  0  0  0  0  0  0
    1.7875   -5.8667    0.0000 C   0  0  0  0  0  0  0  0  0  0  0  0
    1.9000   -4.4875    0.0000 C   0  0  0  0  0  0  0  0  0  0  0  0
    1.1125   -4.4167    0.0000 C   0  0  0  0  0  0  0  0  0  0  0  0
    1.0000   -5.8042    0.0000 C   0  0  0  0  0  0  0  0  0  0  0  0
    0.6625   -5.0875    0.0000 C   0  0  0  0  0  0  0  0  0  0  0  0
  2  1  2  0  0  0  0
  3  1  1  0  0  0  0
  4  2  1  0  0  0  0
  5 11  1  0  0  0  0
  6  3  2  0  0  0  0
  7  9  1  0  0  0  0
  8  5  1  0  0  0  0
  9  3  1  0  0  0  0
 10  2  1  0  0  0  0
 11 16  1  0  0  0  0
 12 15  1  0  0  0  0
 13  8  2  0  0  0  0
 14  8  1  0  0  0  0
 15  7  1  0  0  0  0
 16  7  1  0  0  0  0
 17 18  1  0  0  0  0
 18 14  2  0  0  0  0
 19 13  1  0  0  0  0
 20 17  1  0  0  0  0
 21 10  1  0  0  0  0
 22 10  2  0  0  0  0
 23 22  1  0  0  0  0
 24 21  2  0  0  0  0
 25 23  2  0  0  0  0
  4  6  1  0  0  0  0
 12  5  1  0  0  0  0
 24 25  1  0  0  0  0
 19 17  2  0  0  0  0
M  END
> <#>
2011

> <PLATE>
LAT026

> <ROW>
C

> <COL>
3

> <COORD>
C03

> <LATID>
LAT026C03

> <Supplier>
Chembridge

> <Suplier_CAT#>
5648262

> <Sec_Name>
199_D09

> <Concentration_(mM)>
2.5

> <IC50_(µM)>
>100

> <Yeast_Active?>
-

> <Pubchem_CID>
NULL

$$$$
