
  -ISIS-  08130814242D

 24 25  0  0  0  0  0  0  0  0999 V2000
    4.4167   -1.6542    0.0000 C   0  0  0  0  0  0  0  0  0  0  0  0
    5.1292   -1.2375    0.0000 C   0  0  0  0  0  0  0  0  0  0  0  0
    5.8500   -1.6417    0.0000 C   0  0  0  0  0  0  0  0  0  0  0  0
    4.4167   -2.4792    0.0000 C   0  0  0  0  0  0  0  0  0  0  0  0
    6.5625   -1.2292    0.0000 C   0  0  0  0  0  0  0  0  0  0  0  0
    7.2792   -1.6417    0.0000 C   0  0  0  0  0  0  0  0  0  0  0  0
    7.9792   -1.2250    0.0000 C   0  0  0  0  0  0  0  0  0  0  0  0
    3.7042   -2.8917    0.0000 C   0  0  0  0  0  0  0  0  0  0  0  0
    8.7000   -1.6292    0.0000 C   0  0  0  0  0  0  0  0  0  0  0  0
    3.7042   -1.2417    0.0000 C   0  0  0  0  0  0  0  0  0  0  0  0
    8.7042   -2.4542    0.0000 C   0  0  0  0  0  0  0  0  0  0  0  0
    5.1292   -0.4125    0.0000 O   0  0  0  0  0  0  0  0  0  0  0  0
    6.5542   -0.4042    0.0000 O   0  0  0  0  0  0  0  0  0  0  0  0
    7.2792   -2.4667    0.0000 C   0  0  0  0  0  0  0  0  0  0  0  0
    7.9917   -2.8750    0.0000 C   0  0  0  0  0  0  0  0  0  0  0  0
    2.9917   -2.4792    0.0000 C   0  0  0  0  0  0  0  0  0  0  0  0
    5.1375   -2.8917    0.0000 O   0  0  0  0  0  0  0  0  0  0  0  0
    2.9917   -1.6542    0.0000 C   0  0  0  0  0  0  0  0  0  0  0  0
    9.4125   -1.2125    0.0000 O   0  0  0  0  0  0  0  0  0  0  0  0
    9.4250   -2.8667    0.0000 O   0  0  0  0  0  0  0  0  0  0  0  0
    2.2750   -2.8917    0.0000 O   0  0  0  0  0  0  0  0  0  0  0  0
   10.1292   -1.6167    0.0000 C   0  0  0  0  0  0  0  0  0  0  0  0
    9.4292   -3.6917    0.0000 C   0  0  0  0  0  0  0  0  0  0  0  0
    1.5625   -2.4792    0.0000 C   0  0  0  0  0  0  0  0  0  0  0  0
  2  1  1  0  0  0  0
  3  2  1  0  0  0  0
  4  1  1  0  0  0  0
  5  3  1  0  0  0  0
  6  5  1  0  0  0  0
  7  6  1  0  0  0  0
  8  4  2  0  0  0  0
  9  7  2  0  0  0  0
 10  1  2  0  0  0  0
 11 15  2  0  0  0  0
 12  2  2  0  0  0  0
 13  5  2  0  0  0  0
 14  6  2  0  0  0  0
 15 14  1  0  0  0  0
 16 18  2  0  0  0  0
 17  4  1  0  0  0  0
 18 10  1  0  0  0  0
 19  9  1  0  0  0  0
 20 11  1  0  0  0  0
 21 16  1  0  0  0  0
 22 19  1  0  0  0  0
 23 20  1  0  0  0  0
 24 21  1  0  0  0  0
 16  8  1  0  0  0  0
  9 11  1  0  0  0  0
M  END
> <#>
1349

> <PLATE>
LAT017

> <ROW>
E

> <COL>
10

> <COORD>
E10

> <LATID>
LAT017E10

> <Supplier>
Chembridge

> <Suplier_CAT#>
7461607

> <Name>
Novel

> <Concentration_(mM)>
2.5

> <IC50_(µM)>
>100

> <Yeast_Active?>
-

> <Pubchem_CID>
755072

$$$$
