
  -ISIS-  08130814242D

 10 11  0  0  0  0  0  0  0  0999 V2000
    0.0241   -2.2950    0.0000 N   0  0  3  0  0  0  0  0  0  0  0  0
    0.1548   -1.0519    0.0000 N   0  0  0  0  0  0  0  0  0  0  0  0
   -0.9872   -0.5435    0.0000 N   0  0  0  0  0  0  0  0  0  0  0  0
   -1.8236   -1.4724    0.0000 C   0  0  0  0  0  0  0  0  0  0  0  0
   -1.1986   -2.5549    0.0000 C   0  0  0  0  0  0  0  0  0  0  0  0
   -3.0736   -1.4724    0.0000 C   0  0  0  0  0  0  0  0  0  0  0  0
   -3.6986   -2.5549    0.0000 C   0  0  0  0  0  0  0  0  0  0  0  0
   -3.0736   -3.6374    0.0000 C   0  0  0  0  0  0  0  0  0  0  0  0
   -1.8236   -3.6374    0.0000 C   0  0  0  0  0  0  0  0  0  0  0  0
    0.9530   -3.1314    0.0000 O   0  0  0  0  0  0  0  0  0  0  0  0
  1  2  1  0  0  0  0
  2  3  2  0  0  0  0
  3  4  1  0  0  0  0
  4  5  1  0  0  0  0
  1  5  1  0  0  0  0
  6  7  1  0  0  0  0
  7  8  2  0  0  0  0
  8  9  1  0  0  0  0
  5  9  2  0  0  0  0
  4  6  2  0  0  0  0
  1 10  1  0  0  0  0
M  END
> <#>
326

> <PLATE>
LAT005

> <ROW>
F

> <COL>
2

> <COORD>
F02

> <LATID>
LAT005F02

> <Supplier>
Aldrich

> <Suplier_CAT#>
362441

> <Name>
1-Hydroxybenzotriazole

> <Concentration_(mM)>
2.5

> <IC50_(µM)>
inactive

> <Yeast_Active?>
-

> <Pubchem_CID>
75771

$$$$
