
  -ISIS-  08130814242D

 19 20  0  0  0  0  0  0  0  0999 V2000
    5.6417    1.1250    0.0000 C   0  0  0  0  0  0  0  0  0  0  0  0
    6.2917    1.5000    0.0000 C   0  0  0  0  0  0  0  0  0  0  0  0
    4.9917    1.5000    0.0000 C   0  0  0  0  0  0  0  0  0  0  0  0
    5.6417    0.3750    0.0000 C   0  0  0  0  0  0  0  0  0  0  0  0
    4.3417    1.1250    0.0000 C   0  0  0  0  0  0  0  0  0  0  0  0
    4.9917    0.0000    0.0000 C   0  0  0  0  0  0  0  0  0  0  0  0
    4.3417    0.3750    0.0000 C   0  0  0  0  0  0  0  0  0  0  0  0
    6.9417    1.1250    0.0000 N   0  0  0  0  0  0  0  0  0  0  0  0
    8.2417    0.3750    0.0000 N   0  0  0  0  0  0  0  0  0  0  0  0
    6.2917    2.2500    0.0000 O   0  0  0  0  0  0  0  0  0  0  0  0
    4.9917    2.2500    0.0000 Cl  0  0  0  0  0  0  0  0  0  0  0  0
    7.5917    1.5000    0.0000 C   0  0  0  0  0  0  0  0  0  0  0  0
    8.2417    1.1250    0.0000 C   0  0  0  0  0  0  0  0  0  0  0  0
    4.9917   -0.7500    0.0000 F   0  0  0  0  0  0  0  0  0  0  0  0
    3.7000    0.0000    0.0000 F   0  0  0  0  0  0  0  0  0  0  0  0
    8.8917    0.0000    0.0000 C   0  0  0  0  0  0  0  0  0  0  0  0
    8.8917    1.5000    0.0000 C   0  0  0  0  0  0  0  0  0  0  0  0
    9.5417    0.3750    0.0000 C   0  0  0  0  0  0  0  0  0  0  0  0
    9.5417    1.1250    0.0000 C   0  0  0  0  0  0  0  0  0  0  0  0
  2  1  1  0  0  0  0
  3  1  1  0  0  0  0
  4  1  2  0  0  0  0
  5  3  2  0  0  0  0
  6  4  1  0  0  0  0
  7  6  2  0  0  0  0
  8  2  1  0  0  0  0
  9 13  2  0  0  0  0
 10  2  2  0  0  0  0
 11  3  1  0  0  0  0
 12  8  1  0  0  0  0
 13 12  1  0  0  0  0
 14  6  1  0  0  0  0
 15  7  1  0  0  0  0
 16  9  1  0  0  0  0
 17 13  1  0  0  0  0
 18 19  1  0  0  0  0
 19 17  2  0  0  0  0
  5  7  1  0  0  0  0
 16 18  2  0  0  0  0
M  END
> <#>
1550

> <PLATE>
LAT020

> <ROW>
F

> <COL>
5

> <COORD>
F05

> <LATID>
LAT020F05

> <Supplier>
Chembridge

> <Suplier_CAT#>
7947382

> <Name>
Novel

> <Concentration_(mM)>
2.5

> <IC50_(µM)>
inactive

> <Yeast_Active?>
-

> <Pubchem_CID>
1246599

$$$$
