
  -ISIS-  08130814242D

 24 27  0  0  0  0  0  0  0  0999 V2000
    4.1417    0.3792    0.0000 N   0  0  3  0  0  0  0  0  0  0  0  0
    4.1417   -2.3458    0.0000 C   0  0  1  0  0  0  0  0  0  0  0  0
    3.3750    0.8333    0.0000 C   0  0  0  0  0  0  0  0  0  0  0  0
    3.3750    1.7417    0.0000 C   0  0  0  0  0  0  0  0  0  0  0  0
    4.9042    1.7417    0.0000 N   0  0  0  0  0  0  0  0  0  0  0  0
    3.7000   -3.0875    0.0000 C   0  0  3  0  0  0  0  0  0  0  0  0
    4.9042    0.8333    0.0000 C   0  0  0  0  0  0  0  0  0  0  0  0
    3.1667   -1.7833    0.0000 O   0  0  0  0  0  0  0  0  0  0  0  0
    2.6125    2.1958    0.0000 C   0  0  0  0  0  0  0  0  0  0  0  0
    2.6458   -3.0875    0.0000 C   0  0  2  0  0  0  0  0  0  0  0  0
    2.2500   -2.3833    0.0000 C   0  0  1  0  0  0  0  0  0  0  0  0
    2.6042    0.3875    0.0000 N   0  0  0  0  0  0  0  0  0  0  0  0
    1.8417    1.7417    0.0000 N   0  0  0  0  0  0  0  0  0  0  0  0
    2.6125    2.8958    0.0000 N   0  0  0  0  0  0  0  0  0  0  0  0
    1.8417    0.8333    0.0000 C   0  0  0  0  0  0  0  0  0  0  0  0
    3.7000   -3.7917    0.0000 O   0  0  0  0  0  0  0  0  0  0  0  0
    2.6458   -3.7917    0.0000 O   0  0  0  0  0  0  0  0  0  0  0  0
    1.7208    2.8958    0.0000 C   0  0  3  0  0  0  0  0  0  0  0  0
    2.2458   -1.6333    0.0000 C   0  0  0  0  0  0  0  0  0  0  0  0
    1.6083   -1.2583    0.0000 O   0  0  0  0  0  0  0  0  0  0  0  0
    1.2000    3.6333    0.0000 C   0  0  0  0  0  0  0  0  0  0  0  0
    1.1875    2.1500    0.0000 C   0  0  0  0  0  0  0  0  0  0  0  0
    0.3500    2.4167    0.0000 C   0  0  0  0  0  0  0  0  0  0  0  0
    0.3500    3.3375    0.0000 C   0  0  0  0  0  0  0  0  0  0  0  0
  2  1  1  0  0  0  0
  3  1  1  0  0  0  0
  4  3  2  0  0  0  0
  5  7  2  0  0  0  0
  2  6  1  1  0  0  0
  7  1  1  0  0  0  0
  8  2  1  0  0  0  0
  9  4  1  0  0  0  0
 10  6  1  1  0  0  0
 11  8  1  0  0  0  0
 12  3  1  0  0  0  0
 13 15  1  0  0  0  0
 14  9  1  0  0  0  0
 15 12  2  0  0  0  0
 16  6  1  0  0  0  0
 17 10  1  0  0  0  0
 18 14  1  0  0  0  0
 19 11  1  0  0  0  0
 20 19  1  0  0  0  0
 21 18  1  0  0  0  0
 22 18  1  0  0  0  0
 23 22  1  0  0  0  0
 24 21  1  0  0  0  0
  4  5  1  0  0  0  0
 11 10  1  1  0  0  0
 13  9  2  0  0  0  0
 23 24  1  0  0  0  0
M  END
> <#>
215

> <PLATE>
LAT003

> <ROW>
G

> <COL>
8

> <COORD>
G08

> <LATID>
LAT003G08

> <Supplier>
Sigma

> <Suplier_CAT#>
C 8031

> <Name>
N6-Cyclopentyladenosine

> <Concentration_(mM)>
2.5

> <IC50_(µM)>
50

> <Yeast_Active?>
-

> <Pubchem_CID>
4402

> <Description>
Kinetin Analog

> <LATCA_Notes>
Phenocopies ACC addition

$$$$
