
  -ISIS-  08130814242D

 18 19  0  0  0  0  0  0  0  0999 V2000
    4.4625   -2.2167    0.0000 N   0  0  3  0  0  0  0  0  0  0  0  0
    3.7542   -0.9792    0.0000 N   0  0  0  0  0  0  0  0  0  0  0  0
    3.7542   -1.8042    0.0000 C   0  0  0  0  0  0  0  0  0  0  0  0
    4.4625   -3.0417    0.0000 C   0  0  3  0  0  0  0  0  0  0  0  0
    5.1750   -1.7917    0.0000 C   0  0  0  0  0  0  0  0  0  0  0  0
    5.1792   -0.9750    0.0000 C   0  0  0  0  0  0  0  0  0  0  0  0
    4.4625   -0.5667    0.0000 C   0  0  0  0  0  0  0  0  0  0  0  0
    3.8000   -3.5167    0.0000 C   0  0  3  0  0  0  0  0  0  0  0  0
    5.1292   -3.5167    0.0000 O   0  0  0  0  0  0  0  0  0  0  0  0
    3.0375   -2.2167    0.0000 O   0  0  0  0  0  0  0  0  0  0  0  0
    4.0542   -4.3042    0.0000 C   0  0  3  0  0  0  0  0  0  0  0  0
    4.8792   -4.3042    0.0000 C   0  0  0  0  0  0  0  0  0  0  0  0
    4.4542    0.2583    0.0000 O   0  0  0  0  0  0  0  0  0  0  0  0
    5.8917   -0.5625    0.0000 C   0  0  0  0  0  0  0  0  0  0  0  0
    3.0625   -3.4917    0.0000 C   0  0  0  0  0  0  0  0  0  0  0  0
    4.0500   -5.1292    0.0000 O   0  0  0  0  0  0  0  0  0  0  0  0
    2.5500   -4.2417    0.0000 O   0  0  0  0  0  0  0  0  0  0  0  0
    5.9000    0.2625    0.0000 C   0  0  0  0  0  0  0  0  0  0  0  0
  2  3  1  0  0  0  0
  3  1  1  0  0  0  0
  4  1  1  0  0  0  0
  5  1  1  0  0  0  0
  6  5  2  0  0  0  0
  7  6  1  0  0  0  0
  8  4  1  0  0  0  0
  9  4  1  0  0  0  0
 10  3  2  0  0  0  0
 11  8  1  0  0  0  0
 12  9  1  0  0  0  0
 13  7  1  0  0  0  0
 14  6  1  0  0  0  0
 15  8  1  0  0  0  0
 16 11  1  0  0  0  0
 17 15  1  0  0  0  0
 18 14  1  0  0  0  0
  2  7  2  0  0  0  0
 11 12  1  0  0  0  0
M  END
> <#>
77

> <PLATE>
LAT001

> <ROW>
E

> <COL>
11

> <COORD>
E11

> <LATID>
LAT001E11

> <Supplier>
Microsource

> <Suplier_CAT#>
01503214

> <Name>
Edoxudine

> <Concentration_(mM)>
2.5

> <IC50_(µM)>
>100

> <Yeast_Active?>
-

> <Pubchem_CID>
66377

> <Description>
Antiviral

$$$$
