
  -ISIS-  08130814242D

 18 18  0  0  0  0  0  0  0  0999 V2000
    0.4167    0.0833    0.0000 C   0  0  0  0  0  0  0  0  0  0  0  0
    2.0375    0.0958    0.0000 C   0  0  3  0  0  0  0  0  0  0  0  0
    1.2375    0.5500    0.0000 C   0  0  0  0  0  0  0  0  0  0  0  0
   -0.4000    0.5500    0.0000 C   0  0  0  0  0  0  0  0  0  0  0  0
   -1.2125    0.0833    0.0000 C   0  0  0  0  0  0  0  0  0  0  0  0
   -1.2125   -0.8542    0.0000 C   0  0  0  0  0  0  0  0  0  0  0  0
   -2.0208   -1.3292    0.0000 C   0  0  0  0  0  0  0  0  0  0  0  0
   -2.0208    0.5500    0.0000 C   0  0  0  0  0  0  0  0  0  0  0  0
   -0.4000    1.4958    0.0000 O   0  0  0  0  0  0  0  0  0  0  0  0
    2.8292   -0.3667    0.0000 F   0  0  0  0  0  0  0  0  0  0  0  0
    2.5042    0.9000    0.0000 F   0  0  0  0  0  0  0  0  0  0  0  0
    1.5667   -0.7167    0.0000 F   0  0  0  0  0  0  0  0  0  0  0  0
    1.2375    1.5000    0.0000 N   0  0  0  0  0  0  0  0  0  0  0  0
   -2.8333   -0.8542    0.0000 C   0  0  0  0  0  0  0  0  0  0  0  0
   -0.4000   -1.3292    0.0000 O   0  0  0  0  0  0  0  0  0  0  0  0
   -2.8333    0.0833    0.0000 C   0  0  0  0  0  0  0  0  0  0  0  0
   -3.6458   -1.3292    0.0000 O   0  0  0  0  0  0  0  0  0  0  0  0
   -4.4458   -0.8667    0.0000 C   0  0  0  0  0  0  0  0  0  0  0  0
  2  3  1  0  0  0  0
  3  1  2  0  0  0  0
  4  1  1  0  0  0  0
  5  4  1  0  0  0  0
  6  5  2  0  0  0  0
  7  6  1  0  0  0  0
  8  5  1  0  0  0  0
  9  4  2  0  0  0  0
 10  2  1  0  0  0  0
 11  2  1  0  0  0  0
 12  2  1  0  0  0  0
 13  3  1  0  0  0  0
 14 16  1  0  0  0  0
 15  6  1  0  0  0  0
 16  8  2  0  0  0  0
 17 14  1  0  0  0  0
 18 17  1  0  0  0  0
 14  7  2  0  0  0  0
M  END
> <#>
1171

> <PLATE>
LAT015

> <ROW>
C

> <COL>
8

> <COORD>
C08

> <LATID>
LAT015C08

> <Supplier>
Chembridge

> <Suplier_CAT#>
5564069

> <Name>
Novel

> <Sec_Name>
170_D08

> <Concentration_(mM)>
2.5

> <IC50_(µM)>
>100

> <Yeast_Active?>
-

> <Pubchem_CID>
872094

$$$$
