
  -ISIS-  08130814242D

 19 20  0  0  0  0  0  0  0  0999 V2000
   -2.5833    5.5875    0.0000 C   0  0  0  0  0  0  0  0  0  0  0  0
   -1.0500    3.0500    0.0000 C   0  0  0  0  0  0  0  0  0  0  0  0
    1.9042    3.0500    0.0000 C   0  0  0  0  0  0  0  0  0  0  0  0
    3.4000    0.5833    0.0000 C   0  0  0  0  0  0  0  0  0  0  0  0
    1.9042   -2.0292    0.0000 C   0  0  0  0  0  0  0  0  0  0  0  0
  -11.4292   10.8500    0.0000 C   0  0  0  0  0  0  0  0  0  0  0  0
   -1.1333    8.2042    0.0000 O   0  0  0  0  0  0  0  0  0  0  0  0
   -2.5000    0.5000    0.0000 C   0  0  0  0  0  0  0  0  0  0  0  0
   -5.5708    5.5875    0.0000 N   0  0  0  0  0  0  0  0  0  0  0  0
   -1.0125   -2.1042    0.0000 C   0  0  0  0  0  0  0  0  0  0  0  0
   -9.9792   13.3792    0.0000 C   0  0  0  0  0  0  0  0  0  0  0  0
   -7.0292    8.1917    0.0000 C   0  0  0  0  0  0  0  0  0  0  0  0
   -9.9792    8.2875    0.0000 C   0  0  0  0  0  0  0  0  0  0  0  0
    6.3292    0.7000    0.0000 C   0  0  0  0  0  0  0  0  0  0  0  0
  -14.3542   10.8500    0.0000 C   0  0  0  0  0  0  0  0  0  0  0  0
    3.3542   -4.5667    0.0000 C   0  0  0  0  0  0  0  0  0  0  0  0
  -11.3792   15.9375    0.0000 C   0  0  0  0  0  0  0  0  0  0  0  0
  -15.8500   13.4167    0.0000 C   0  0  0  0  0  0  0  0  0  0  0  0
  -14.4167   16.0000    0.0000 C   0  0  0  0  0  0  0  0  0  0  0  0
  2  1  1  0  0  0  0
  3  2  1  0  0  0  0
  4  3  2  0  0  0  0
  5 10  2  0  0  0  0
  6 13  1  0  0  0  0
  7  1  2  0  0  0  0
  8  2  2  0  0  0  0
  9  1  1  0  0  0  0
 10  8  1  0  0  0  0
 11  6  2  0  0  0  0
 12  9  1  0  0  0  0
 13 12  1  0  0  0  0
 14  4  1  0  0  0  0
 15  6  1  0  0  0  0
 16  5  1  0  0  0  0
 17 11  1  0  0  0  0
 18 15  1  0  0  0  0
 19 18  1  0  0  0  0
  4  5  1  0  0  0  0
 17 19  1  0  0  0  0
M  END
> <#>
1092

> <PLATE>
LAT014

> <ROW>
D

> <COL>
8

> <COORD>
D08

> <LATID>
LAT014D08

> <Supplier>
Chembridge

> <Suplier_CAT#>
7234005

> <Name>
Novel

> <Concentration_(mM)>
2.5

> <IC50_(µM)>
42

> <Yeast_Active?>
-

> <Pubchem_CID>
896596

$$$$
