
  -ISIS-  08130814242D

 24 26  0  0  0  0  0  0  0  0999 V2000
   -0.8208   -0.0042    0.0000 N   0  0  3  0  0  0  0  0  0  0  0  0
   -0.1708   -0.7500    0.0000 C   0  0  0  0  0  0  0  0  0  0  0  0
   -0.3333    0.7958    0.0000 C   0  0  0  0  0  0  0  0  0  0  0  0
    0.7292   -0.3500    0.0000 C   0  0  0  0  0  0  0  0  0  0  0  0
    0.6542    0.6000    0.0000 S   0  0  0  0  0  0  0  0  0  0  0  0
   -1.8125   -0.0042    0.0000 N   0  0  0  0  0  0  0  0  0  0  0  0
   -2.2833   -0.8292    0.0000 C   0  0  0  0  0  0  0  0  0  0  0  0
    1.5875   -0.8167    0.0000 C   0  0  0  0  0  0  0  0  0  0  0  0
   -0.7125    1.7333    0.0000 S   0  0  0  0  0  0  0  0  0  0  0  0
   -0.3708   -1.7292    0.0000 O   0  0  0  0  0  0  0  0  0  0  0  0
   -1.8208   -1.7000    0.0000 O   0  0  0  0  0  0  0  0  0  0  0  0
   -3.2958   -0.8292    0.0000 C   0  0  0  0  0  0  0  0  0  0  0  0
    2.4292   -0.3292    0.0000 C   0  0  0  0  0  0  0  0  0  0  0  0
    4.1167    0.6500    0.0000 C   0  0  0  0  0  0  0  0  0  0  0  0
    2.4292    0.6500    0.0000 C   0  0  0  0  0  0  0  0  0  0  0  0
    3.3500   -0.7667    0.0000 C   0  0  0  0  0  0  0  0  0  0  0  0
    3.2667    1.1333    0.0000 C   0  0  0  0  0  0  0  0  0  0  0  0
    4.1167   -0.3292    0.0000 C   0  0  0  0  0  0  0  0  0  0  0  0
    4.9667    1.1333    0.0000 O   0  0  0  0  0  0  0  0  0  0  0  0
   -3.8000    0.0000    0.0000 C   0  0  0  0  0  0  0  0  0  0  0  0
   -3.7958   -1.6875    0.0000 C   0  0  0  0  0  0  0  0  0  0  0  0
   -4.7833   -1.6875    0.0000 C   0  0  0  0  0  0  0  0  0  0  0  0
   -4.7833    0.0000    0.0000 C   0  0  0  0  0  0  0  0  0  0  0  0
   -5.2708   -0.8292    0.0000 C   0  0  0  0  0  0  0  0  0  0  0  0
  2  1  1  0  0  0  0
  3  1  1  0  0  0  0
  4  2  1  0  0  0  0
  5  3  1  0  0  0  0
  6  1  1  0  0  0  0
  7  6  1  0  0  0  0
  8  4  2  0  0  0  0
  9  3  2  0  0  0  0
 10  2  2  0  0  0  0
 11  7  2  0  0  0  0
 12  7  1  0  0  0  0
 13  8  1  0  0  0  0
 14 18  1  0  0  0  0
 15 13  2  0  0  0  0
 16 13  1  0  0  0  0
 17 15  1  0  0  0  0
 18 16  2  0  0  0  0
 19 14  1  0  0  0  0
 20 12  2  0  0  0  0
 21 12  1  0  0  0  0
 22 21  2  0  0  0  0
 23 20  1  0  0  0  0
 24 22  1  0  0  0  0
  4  5  1  0  0  0  0
 23 24  2  0  0  0  0
 14 17  2  0  0  0  0
M  END
> <#>
1772

> <PLATE>
LAT023

> <ROW>
D

> <COL>
3

> <COORD>
D03

> <LATID>
LAT023D03

> <Supplier>
Chembridge

> <Suplier_CAT#>
5535315

> <Name>
Novel

> <Sec_Name>
154_H11

> <Concentration_(mM)>
2.5

> <IC50_(µM)>
17

> <Yeast_Active?>
-

> <Pubchem_CID>
1240271

$$$$
