
  -ISIS-  08130814242D

 10 11  0  0  0  0  0  0  0  0999 V2000
    6.4434   -0.7659    0.0000 N   0  0  3  0  0  0  0  0  0  0  0  0
    6.5740    0.4773    0.0000 N   0  0  0  0  0  0  0  0  0  0  0  0
    5.4321    0.9857    0.0000 N   0  0  0  0  0  0  0  0  0  0  0  0
    4.5957    0.0568    0.0000 C   0  0  0  0  0  0  0  0  0  0  0  0
    5.2207   -1.0257    0.0000 C   0  0  0  0  0  0  0  0  0  0  0  0
    3.3457    0.0568    0.0000 C   0  0  0  0  0  0  0  0  0  0  0  0
    2.7207   -1.0257    0.0000 C   0  0  0  0  0  0  0  0  0  0  0  0
    3.3457   -2.1083    0.0000 C   0  0  0  0  0  0  0  0  0  0  0  0
    4.5957   -2.1083    0.0000 C   0  0  0  0  0  0  0  0  0  0  0  0
    7.3723   -1.6023    0.0000 N   0  0  0  0  0  0  0  0  0  0  0  0
  1  2  1  0  0  0  0
  2  3  2  0  0  0  0
  3  4  1  0  0  0  0
  4  5  1  0  0  0  0
  1  5  1  0  0  0  0
  6  7  1  0  0  0  0
  7  8  2  0  0  0  0
  8  9  1  0  0  0  0
  5  9  2  0  0  0  0
  4  6  2  0  0  0  0
  1 10  1  0  0  0  0
M  END
> <#>
376

> <PLATE>
LAT005

> <ROW>
H

> <COL>
8

> <COORD>
H08

> <LATID>
LAT005H08

> <Supplier>
Fluka

> <Suplier_CAT#>
7036

> <Name>
1-Aminobenzotriazole

> <Concentration_(mM)>
2.5

> <IC50_(µM)>
inactive

> <Yeast_Active?>
-

> <Pubchem_CID>
1367

> <Description>
Synergist

> <LATCA_Notes>
Used as a general P450 inhibitor

$$$$
