
  -ISIS-  08130814242D

 16 17  0  0  0  0  0  0  0  0999 V2000
   -0.5125    1.3000    0.0000 C   0  0  0  0  0  0  0  0  0  0  0  0
   -1.2708    1.3000    0.0000 C   0  0  0  0  0  0  0  0  0  0  0  0
   -0.1500    0.6625    0.0000 N   0  0  0  0  0  0  0  0  0  0  0  0
    0.6042    0.6625    0.0000 N   0  0  3  0  0  0  0  0  0  0  0  0
   -1.6333    0.6625    0.0000 C   0  0  0  0  0  0  0  0  0  0  0  0
   -0.1500    1.9458    0.0000 O   0  0  0  0  0  0  0  0  0  0  0  0
    2.1042    0.6625    0.0000 O   0  0  0  0  0  0  0  0  0  0  0  0
    0.9875    0.0208    0.0000 C   0  0  0  0  0  0  0  0  0  0  0  0
    0.9875    1.3000    0.0000 C   0  0  0  0  0  0  0  0  0  0  0  0
   -1.2500    0.0000    0.0000 Br  0  0  0  0  0  0  0  0  0  0  0  0
   -1.6333    1.9458    0.0000 C   0  0  0  0  0  0  0  0  0  0  0  0
    1.7292    0.0208    0.0000 C   0  0  0  0  0  0  0  0  0  0  0  0
    1.7292    1.3000    0.0000 C   0  0  0  0  0  0  0  0  0  0  0  0
   -2.3958    0.6625    0.0000 C   0  0  0  0  0  0  0  0  0  0  0  0
   -2.3958    1.9458    0.0000 C   0  0  0  0  0  0  0  0  0  0  0  0
   -2.7500    1.3000    0.0000 C   0  0  0  0  0  0  0  0  0  0  0  0
  2  1  1  0  0  0  0
  3  1  1  0  0  0  0
  4  3  1  0  0  0  0
  5  2  2  0  0  0  0
  6  1  2  0  0  0  0
  7 13  1  0  0  0  0
  8  4  1  0  0  0  0
  9  4  1  0  0  0  0
 10  5  1  0  0  0  0
 11  2  1  0  0  0  0
 12  8  1  0  0  0  0
 13  9  1  0  0  0  0
 14  5  1  0  0  0  0
 15 11  2  0  0  0  0
 16 15  1  0  0  0  0
  7 12  1  0  0  0  0
 14 16  2  0  0  0  0
M  END
> <#>
2044

> <PLATE>
LAT026

> <ROW>
D

> <COL>
7

> <COORD>
D07

> <LATID>
LAT026D07

> <Supplier>
Chembridge

> <Suplier_CAT#>
5530292

> <Sec_Name>
152_H07

> <Concentration_(mM)>
2.5

> <IC50_(µM)>
inactive

> <Yeast_Active?>
-

> <Pubchem_CID>
819247

$$$$
