
  -ISIS-  08130814242D

 18 19  0  0  0  0  0  0  0  0999 V2000
   10.5667  -15.2417    0.0000 N   0  0  0  0  0  0  0  0  0  0  0  0
   11.0625  -14.9292    0.0000 C   0  0  0  0  0  0  0  0  0  0  0  0
   10.9167  -14.3625    0.0000 N   0  0  0  0  0  0  0  0  0  0  0  0
   10.3292  -14.3167    0.0000 N   0  0  0  0  0  0  0  0  0  0  0  0
   10.1167  -14.8667    0.0000 C   0  0  0  0  0  0  0  0  0  0  0  0
   13.0750  -14.6417    0.0000 C   0  0  0  0  0  0  0  0  0  0  0  0
   13.6167  -14.8625    0.0000 C   0  0  0  0  0  0  0  0  0  0  0  0
   14.0792  -14.5000    0.0000 C   0  0  0  0  0  0  0  0  0  0  0  0
   12.6125  -15.0042    0.0000 C   0  0  0  0  0  0  0  0  0  0  0  0
   11.6042  -15.1500    0.0000 S   0  0  0  0  0  0  0  0  0  0  0  0
   14.0000  -13.9167    0.0000 C   0  0  0  0  0  0  0  0  0  0  0  0
   12.0667  -14.7875    0.0000 C   0  0  0  0  0  0  0  0  0  0  0  0
   12.9917  -14.0625    0.0000 C   0  0  0  0  0  0  0  0  0  0  0  0
   12.6917  -15.5875    0.0000 O   0  0  0  0  0  0  0  0  0  0  0  0
   13.4542  -13.7000    0.0000 C   0  0  0  0  0  0  0  0  0  0  0  0
   14.6292  -14.7167    0.0000 O   0  0  0  0  0  0  0  0  0  0  0  0
   14.4625  -13.5542    0.0000 O   0  0  0  0  0  0  0  0  0  0  0  0
    9.5417  -15.0042    0.0000 C   0  0  0  0  0  0  0  0  0  0  0  0
  2  1  1  0  0  0  0
  3  2  2  0  0  0  0
  4  5  2  0  0  0  0
  5  1  1  0  0  0  0
  6  9  1  0  0  0  0
  7  6  2  0  0  0  0
  8  7  1  0  0  0  0
  9 12  1  0  0  0  0
 10  2  1  0  0  0  0
 11 15  1  0  0  0  0
 12 10  1  0  0  0  0
 13  6  1  0  0  0  0
 14  9  2  0  0  0  0
 15 13  2  0  0  0  0
 16  8  1  0  0  0  0
 17 11  1  0  0  0  0
 18  5  1  0  0  0  0
  3  4  1  0  0  0  0
  8 11  2  0  0  0  0
M  END
> <#>
1267

> <PLATE>
LAT016

> <ROW>
C

> <COL>
10

> <COORD>
C10

> <LATID>
LAT016C10

> <Supplier>
Chembridge

> <Suplier_CAT#>
6613853

> <Name>
Novel

> <Concentration_(mM)>
2.5

> <IC50_(µM)>
inactive

> <Yeast_Active?>
-

> <Pubchem_CID>
NULL

$$$$
