
  -ISIS-  08130814242D

 30 33  0  0  0  0  0  0  0  0999 V2000
   -1.4333    1.5708    0.0000 N   0  0  3  0  0  0  0  0  0  0  0  0
   -2.3708    2.1333    0.0000 C   0  0  0  0  0  0  0  0  0  0  0  0
   -2.1458    3.1958    0.0000 N   0  0  0  0  0  0  0  0  0  0  0  0
   -0.6208    2.3000    0.0000 C   0  0  0  0  0  0  0  0  0  0  0  0
   -1.0833    3.3208    0.0000 N   0  0  0  0  0  0  0  0  0  0  0  0
   -3.3333    1.5958    0.0000 C   0  0  0  0  0  0  0  0  0  0  0  0
    0.5000    2.1000    0.0000 S   0  0  0  0  0  0  0  0  0  0  0  0
   -1.4333    0.4833    0.0000 C   0  0  0  0  0  0  0  0  0  0  0  0
    1.9667    0.8625    0.0000 C   0  0  0  0  0  0  0  0  0  0  0  0
   -3.3333    0.4833    0.0000 C   0  0  0  0  0  0  0  0  0  0  0  0
    2.3500   -0.1792    0.0000 N   0  0  0  0  0  0  0  0  0  0  0  0
    2.6792    1.6958    0.0000 O   0  0  0  0  0  0  0  0  0  0  0  0
    0.8792    1.0625    0.0000 C   0  0  0  0  0  0  0  0  0  0  0  0
   -4.3000   -0.0542    0.0000 C   0  0  0  0  0  0  0  0  0  0  0  0
    3.4042   -0.3875    0.0000 C   0  0  0  0  0  0  0  0  0  0  0  0
   -4.3000   -1.1667    0.0000 Cl  0  0  0  0  0  0  0  0  0  0  0  0
    3.7875   -1.4292    0.0000 C   0  0  0  0  0  0  0  0  0  0  0  0
   -4.3000    2.1333    0.0000 C   0  0  0  0  0  0  0  0  0  0  0  0
   -5.2708    1.5708    0.0000 C   0  0  0  0  0  0  0  0  0  0  0  0
   -0.4708   -0.0542    0.0000 C   0  0  0  0  0  0  0  0  0  0  0  0
   -2.3958   -0.0542    0.0000 C   0  0  0  0  0  0  0  0  0  0  0  0
   -5.2708    0.4833    0.0000 C   0  0  0  0  0  0  0  0  0  0  0  0
    4.8542   -1.6292    0.0000 C   0  0  0  0  0  0  0  0  0  0  0  0
    3.0542   -2.2667    0.0000 C   0  0  0  0  0  0  0  0  0  0  0  0
   -0.4708   -1.1667    0.0000 C   0  0  0  0  0  0  0  0  0  0  0  0
   -2.3958   -1.1667    0.0000 C   0  0  0  0  0  0  0  0  0  0  0  0
    5.2375   -2.6500    0.0000 C   0  0  0  0  0  0  0  0  0  0  0  0
    3.4375   -3.3042    0.0000 C   0  0  0  0  0  0  0  0  0  0  0  0
   -1.4333   -1.7292    0.0000 C   0  0  0  0  0  0  0  0  0  0  0  0
    4.5000   -3.5042    0.0000 C   0  0  0  0  0  0  0  0  0  0  0  0
  2  1  1  0  0  0  0
  3  2  2  0  0  0  0
  4  1  1  0  0  0  0
  5  4  2  0  0  0  0
  6  2  1  0  0  0  0
  7  4  1  0  0  0  0
  8  1  1  0  0  0  0
  9 13  1  0  0  0  0
 10  6  2  0  0  0  0
 11  9  1  0  0  0  0
 12  9  2  0  0  0  0
 13  7  1  0  0  0  0
 14 10  1  0  0  0  0
 15 11  1  0  0  0  0
 16 14  1  0  0  0  0
 17 15  1  0  0  0  0
 18  6  1  0  0  0  0
 19 18  2  0  0  0  0
 20  8  1  0  0  0  0
 21  8  2  0  0  0  0
 22 19  1  0  0  0  0
 23 17  1  0  0  0  0
 24 17  2  0  0  0  0
 25 20  2  0  0  0  0
 26 21  1  0  0  0  0
 27 23  2  0  0  0  0
 28 24  1  0  0  0  0
 29 26  2  0  0  0  0
 30 28  2  0  0  0  0
  5  3  1  0  0  0  0
 25 29  1  0  0  0  0
 14 22  2  0  0  0  0
 27 30  1  0  0  0  0
M  END
> <#>
1713

> <PLATE>
LAT022

> <ROW>
A

> <COL>
6

> <COORD>
A06

> <LATID>
LAT022A06

> <Supplier>
Chembridge

> <Suplier_CAT#>
5964932

> <Name>
Eroonazole C

> <Concentration_(mM)>
2.5

> <IC50_(µM)>
6

> <Yeast_Active?>
-

> <Pubchem_CID>
2878864

$$$$
