
  -ISIS-  08130814242D

 65 67  0  0  0  0  0  0  0  0999 V2000
   -5.9025   -0.8695    0.0000 C   0  0  0  0  0  0  0  0  0  0  0  0
   -5.3078   -0.8695    0.0000 C   0  0  1  0  0  0  0  0  0  0  0  0
   -5.2560   -0.2770    0.0000 C   0  0  0  0  0  0  0  0  0  0  0  0
   -5.1021    0.2974    0.0000 C   0  0  0  0  0  0  0  0  0  0  0  0
   -4.8508    0.8364    0.0000 C   0  0  0  0  0  0  0  0  0  0  0  0
   -4.5097    1.3235    0.0000 C   0  0  0  0  0  0  0  0  0  0  0  0
   -4.0892    1.7440    0.0000 C   0  0  0  0  0  0  0  0  0  0  0  0
   -3.6020    2.0851    0.0000 C   0  0  0  0  0  0  0  0  0  0  0  0
   -3.0630    2.3365    0.0000 C   0  0  0  0  0  0  0  0  0  0  0  0
   -2.4886    2.4904    0.0000 C   0  0  0  0  0  0  0  0  0  0  0  0
   -1.8962    2.5422    0.0000 C   0  0  0  0  0  0  0  0  0  0  0  0
   -1.3037    2.4904    0.0000 C   0  0  0  0  0  0  0  0  0  0  0  0
   -0.7293    2.3365    0.0000 C   0  0  0  0  0  0  0  0  0  0  0  0
   -0.1903    2.0851    0.0000 C   0  0  0  0  0  0  0  0  0  0  0  0
    0.2968    1.7440    0.0000 C   0  0  0  0  0  0  0  0  0  0  0  0
    0.7173    1.3235    0.0000 C   0  0  0  0  0  0  0  0  0  0  0  0
    1.0584    0.8364    0.0000 C   0  0  3  0  0  0  0  0  0  0  0  0
    1.3097    0.2974    0.0000 C   0  0  0  0  0  0  0  0  0  0  0  0
    1.4637   -0.2770    0.0000 C   0  0  3  0  0  0  0  0  0  0  0  0
    1.0523   -0.4591    0.0000 C   0  0  3  0  0  0  0  0  0  0  0  0
    0.8874   -0.8695    0.0000 C   0  0  3  0  0  0  0  0  0  0  0  0
    1.0552   -1.2827    0.0000 C   0  0  0  0  0  0  0  0  0  0  0  0
    1.4637   -1.4619    0.0000 C   0  0  2  0  0  0  0  0  0  0  0  0
    1.5155   -0.8695    0.0000 O   0  0  0  0  0  0  0  0  0  0  0  0
    1.3097   -2.0363    0.0000 C   0  0  0  0  0  0  0  0  0  0  0  0
    1.0584   -2.5753    0.0000 C   0  0  3  0  0  0  0  0  0  0  0  0
    0.7173   -3.0624    0.0000 C   0  0  3  0  0  0  0  0  0  0  0  0
    0.2968   -3.4830    0.0000 C   0  0  0  0  0  0  0  0  0  0  0  0
   -0.1903   -3.8241    0.0000 C   0  0  0  0  0  0  0  0  0  0  0  0
   -0.7293   -4.0754    0.0000 C   0  0  3  0  0  0  0  0  0  0  0  0
   -1.3037   -4.2293    0.0000 C   0  0  0  0  0  0  0  0  0  0  0  0
   -1.8962   -4.2811    0.0000 C   0  0  3  0  0  0  0  0  0  0  0  0
   -2.4886   -4.2293    0.0000 C   0  0  0  0  0  0  0  0  0  0  0  0
   -3.0630   -4.0754    0.0000 C   0  0  3  0  0  0  0  0  0  0  0  0
   -3.6020   -3.8241    0.0000 C   0  0  0  0  0  0  0  0  0  0  0  0
   -4.0892   -3.4830    0.0000 C   0  0  0  0  0  0  0  0  0  0  0  0
   -4.4714   -3.9385    0.0000 O   0  0  0  0  0  0  0  0  0  0  0  0
   -4.5097   -3.0624    0.0000 O   0  0  0  0  0  0  0  0  0  0  0  0
   -4.8508   -2.5753    0.0000 C   0  0  2  0  0  0  0  0  0  0  0  0
   -5.1021   -2.0363    0.0000 C   0  0  1  0  0  0  0  0  0  0  0  0
   -5.2560   -1.4619    0.0000 C   0  0  2  0  0  0  0  0  0  0  0  0
   -5.8417   -1.5652    0.0000 O   0  0  0  0  0  0  0  0  0  0  0  0
   -5.6609   -2.2397    0.0000 C   0  0  0  0  0  0  0  0  0  0  0  0
   -5.3658   -2.8726    0.0000 C   0  0  0  0  0  0  0  0  0  0  0  0
   -3.2664   -4.6342    0.0000 O   0  0  0  0  0  0  0  0  0  0  0  0
   -1.8962   -4.8758    0.0000 O   0  0  0  0  0  0  0  0  0  0  0  0
   -0.5259   -4.6342    0.0000 O   0  0  0  0  0  0  0  0  0  0  0  0
    1.1729   -3.4447    0.0000 O   0  0  0  0  0  0  0  0  0  0  0  0
    1.5734   -2.8726    0.0000 O   0  0  0  0  0  0  0  0  0  0  0  0
    2.0493   -1.5652    0.0000 O   0  0  0  0  0  0  0  0  0  0  0  0
    0.2927   -0.8695    0.0000 O   0  0  0  0  0  0  0  0  0  0  0  0
    0.6318   -0.0386    0.0000 C   0  0  0  0  0  0  0  0  0  0  0  0
    0.7749    0.5349    0.0000 O   0  0  0  0  0  0  0  0  0  0  0  0
    0.0567   -0.2034    0.0000 O   0  0  0  0  0  0  0  0  0  0  0  0
    1.5734    1.1337    0.0000 O   0  0  0  0  0  0  0  0  0  0  0  0
    1.5734    1.7284    0.0000 C   0  0  2  0  0  0  0  0  0  0  0  0
    2.0885    2.0258    0.0000 C   0  0  2  0  0  0  0  0  0  0  0  0
    2.0885    2.6205    0.0000 C   0  0  2  0  0  0  0  0  0  0  0  0
    1.5734    2.9178    0.0000 C   0  0  1  0  0  0  0  0  0  0  0  0
    1.0584    2.6205    0.0000 C   0  0  2  0  0  0  0  0  0  0  0  0
    1.0584    2.0258    0.0000 O   0  0  0  0  0  0  0  0  0  0  0  0
    0.5434    2.9178    0.0000 C   0  0  0  0  0  0  0  0  0  0  0  0
    1.5734    3.5125    0.0000 O   0  0  0  0  0  0  0  0  0  0  0  0
    2.6035    2.9178    0.0000 N   0  0  0  0  0  0  0  0  0  0  0  0
    2.6035    1.7284    0.0000 O   0  0  0  0  0  0  0  0  0  0  0  0
  2  1  1  1  0  0  0
  2  3  1  0  0  0  0
  3  4  2  0  0  0  0
  4  5  1  0  0  0  0
  5  6  2  0  0  0  0
  6  7  1  0  0  0  0
  7  8  1  0  0  0  0
  8  9  1  0  0  0  0
  9 10  2  0  0  0  0
 10 11  1  0  0  0  0
 11 12  2  0  0  0  0
 12 13  1  0  0  0  0
 13 14  2  0  0  0  0
 14 15  1  0  0  0  0
 15 16  2  0  0  0  0
 16 17  1  0  0  0  0
 17 18  1  0  0  0  0
 18 19  1  0  0  0  0
 19 20  1  0  0  0  0
 20 21  1  0  0  0  0
 21 22  1  0  0  0  0
 22 23  1  0  0  0  0
 23 24  1  0  0  0  0
 19 24  1  0  0  0  0
 23 25  1  0  0  0  0
 25 26  1  0  0  0  0
 26 27  1  0  0  0  0
 27 28  1  0  0  0  0
 28 29  1  0  0  0  0
 29 30  1  0  0  0  0
 30 31  1  0  0  0  0
 31 32  1  0  0  0  0
 32 33  1  0  0  0  0
 33 34  1  0  0  0  0
 34 35  1  0  0  0  0
 35 36  1  0  0  0  0
 36 37  2  0  0  0  0
 36 38  1  0  0  0  0
 38 39  1  0  0  0  0
 39 40  1  0  0  0  0
 40 41  1  0  0  0  0
  2 41  1  0  0  0  0
 41 42  1  6  0  0  0
 40 43  1  6  0  0  0
 39 44  1  1  0  0  0
 34 45  1  0  0  0  0
 32 46  1  0  0  0  0
 30 47  1  0  0  0  0
 27 48  1  0  0  0  0
 26 49  1  0  0  0  0
 23 50  1  1  0  0  0
 21 51  1  0  0  0  0
 20 52  1  0  0  0  0
 52 53  2  0  0  0  0
 52 54  1  0  0  0  0
 17 55  1  0  0  0  0
 56 55  1  1  0  0  0
 56 57  1  0  0  0  0
 57 58  1  0  0  0  0
 58 59  1  0  0  0  0
 59 60  1  0  0  0  0
 60 61  1  0  0  0  0
 56 61  1  0  0  0  0
 60 62  1  6  0  0  0
 59 63  1  1  0  0  0
 58 64  1  6  0  0  0
 57 65  1  6  0  0  0
M  END
> <#>
400

> <PLATE>
LAT005

> <ROW>
H

> <COL>
11

> <COORD>
H11

> <LATID>
LAT005H11

> <Supplier>
Sigma

> <Suplier_CAT#>
N6261

> <Name>
Nystatin

> <Concentration_(mM)>
2.5

> <IC50_(µM)>
>100

> <Yeast_Active?>
+

> <Pubchem_CID>
4568

$$$$
