
  -ISIS-  08130814242D

 20 21  0  0  0  0  0  0  0  0999 V2000
   -1.9958   -6.3667    0.0000 S   0  0  3  0  0  0  0  0  0  0  0  0
   -5.2333   -6.3792    0.0000 N   0  3  0  0  0  0  0  0  0  0  0  0
   -1.2458   -6.3667    0.0000 N   0  0  0  0  0  0  0  0  0  0  0  0
   -2.7458   -6.3667    0.0000 C   0  0  0  0  0  0  0  0  0  0  0  0
   -4.2458   -6.3667    0.0000 C   0  0  0  0  0  0  0  0  0  0  0  0
   -1.9958   -7.1167    0.0000 O   0  0  0  0  0  0  0  0  0  0  0  0
   -1.9958   -5.6167    0.0000 O   0  0  0  0  0  0  0  0  0  0  0  0
   -5.7458   -5.5167    0.0000 O   0  5  0  0  0  0  0  0  0  0  0  0
   -5.7333   -7.2375    0.0000 O   0  0  0  0  0  0  0  0  0  0  0  0
   -0.8625   -5.7167    0.0000 C   0  0  0  0  0  0  0  0  0  0  0  0
   -0.1125   -5.7292    0.0000 C   0  0  0  0  0  0  0  0  0  0  0  0
   -3.1125   -5.7167    0.0000 C   0  0  0  0  0  0  0  0  0  0  0  0
   -3.1125   -7.0167    0.0000 C   0  0  0  0  0  0  0  0  0  0  0  0
   -3.8625   -5.7167    0.0000 C   0  0  0  0  0  0  0  0  0  0  0  0
   -3.8625   -7.0167    0.0000 C   0  0  0  0  0  0  0  0  0  0  0  0
    0.2542   -5.0792    0.0000 C   0  0  0  0  0  0  0  0  0  0  0  0
    1.0042   -5.0792    0.0000 Br  0  0  0  0  0  0  0  0  0  0  0  0
   -0.8625   -4.4292    0.0000 C   0  0  0  0  0  0  0  0  0  0  0  0
   -1.2333   -5.0792    0.0000 C   0  0  0  0  0  0  0  0  0  0  0  0
   -0.1125   -4.4167    0.0000 C   0  0  0  0  0  0  0  0  0  0  0  0
  2  5  1  0  0  0  0
  3  1  1  0  0  0  0
  4  1  1  0  0  0  0
  5 15  1  0  0  0  0
  6  1  2  0  0  0  0
  7  1  2  0  0  0  0
  8  2  1  0  0  0  0
  9  2  2  0  0  0  0
 10  3  1  0  0  0  0
 11 10  2  0  0  0  0
 12  4  2  0  0  0  0
 13  4  1  0  0  0  0
 14 12  1  0  0  0  0
 15 13  2  0  0  0  0
 16 11  1  0  0  0  0
 17 16  1  0  0  0  0
 18 19  2  0  0  0  0
 19 10  1  0  0  0  0
 20 18  1  0  0  0  0
 14  5  2  0  0  0  0
 16 20  2  0  0  0  0
M  CHG  2   2   1   8  -1
M  END
> <#>
737

> <PLATE>
LAT010

> <ROW>
A

> <COL>
4

> <COORD>
A04

> <LATID>
LAT010A04

> <Supplier>
Chembridge

> <Suplier_CAT#>
5575135

> <Name>
Novel

> <Sec_Name>
177_B10

> <Concentration_(mM)>
2.5

> <IC50_(µM)>
45

> <Yeast_Active?>
-

> <Pubchem_CID>
1350230

$$$$
