
  -ISIS-  08130814242D

 36 37  0  0  0  0  0  0  0  0999 V2000
   -3.8792   -0.8792    0.0000 C   0  0  0  0  0  0  0  0  0  0  0  0
   -3.1667   -1.2917    0.0000 C   0  0  3  0  0  0  0  0  0  0  0  0
   -2.4542   -0.8792    0.0000 C   0  0  0  0  0  0  0  0  0  0  0  0
   -1.7417   -1.2917    0.0000 O   0  0  0  0  0  0  0  0  0  0  0  0
   -1.0292   -0.8792    0.0000 C   0  0  0  0  0  0  0  0  0  0  0  0
   -0.3167   -1.2917    0.0000 O   0  0  0  0  0  0  0  0  0  0  0  0
    0.3958   -0.8792    0.0000 C   0  0  0  0  0  0  0  0  0  0  0  0
    1.1083   -1.2917    0.0000 N   0  0  3  0  0  0  0  0  0  0  0  0
    1.1054   -2.1159    0.0000 C   0  0  0  0  0  0  0  0  0  0  0  0
    1.8138   -2.5283    0.0000 C   0  0  0  0  0  0  0  0  0  0  0  0
    2.5297   -2.1210    0.0000 N   0  0  3  0  0  0  0  0  0  0  0  0
    2.5326   -1.2968    0.0000 C   0  0  0  0  0  0  0  0  0  0  0  0
    1.8197   -0.8798    0.0000 C   0  0  0  0  0  0  0  0  0  0  0  0
   -3.1667   -2.1167    0.0000 C   0  0  0  0  0  0  0  0  0  0  0  0
   -1.0292   -0.0542    0.0000 O   0  0  0  0  0  0  0  0  0  0  0  0
    0.3894   -2.5258    0.0000 O   0  0  0  0  0  0  0  0  0  0  0  0
    1.8215   -0.0548    0.0000 O   0  0  0  0  0  0  0  0  0  0  0  0
    3.2421   -2.5371    0.0000 C   0  0  0  0  0  0  0  0  0  0  0  0
    3.9586   -2.1282    0.0000 C   0  0  0  0  0  0  0  0  0  0  0  0
    4.6710   -2.5442    0.0000 N   0  0  3  0  0  0  0  0  0  0  0  0
    4.6647   -3.3674    0.0000 C   0  0  0  0  0  0  0  0  0  0  0  0
    5.3730   -3.7833    0.0000 C   0  0  0  0  0  0  0  0  0  0  0  0
    6.0920   -3.3779    0.0000 N   0  0  3  0  0  0  0  0  0  0  0  0
    6.0981   -2.5520    0.0000 C   0  0  0  0  0  0  0  0  0  0  0  0
    5.3852   -2.1314    0.0000 C   0  0  0  0  0  0  0  0  0  0  0  0
    6.8042   -3.7875    0.0000 C   0  0  0  0  0  0  0  0  0  0  0  0
    7.5167   -3.3750    0.0000 O   0  0  0  0  0  0  0  0  0  0  0  0
    8.2292   -3.7875    0.0000 C   0  0  0  0  0  0  0  0  0  0  0  0
    8.9417   -3.3750    0.0000 O   0  0  0  0  0  0  0  0  0  0  0  0
    9.6542   -3.7875    0.0000 C   0  0  0  0  0  0  0  0  0  0  0  0
   10.3667   -3.3750    0.0000 C   0  0  3  0  0  0  0  0  0  0  0  0
   11.0792   -3.7875    0.0000 C   0  0  0  0  0  0  0  0  0  0  0  0
    5.3658   -4.6083    0.0000 O   0  0  0  0  0  0  0  0  0  0  0  0
    6.8160   -2.1455    0.0000 O   0  0  0  0  0  0  0  0  0  0  0  0
    8.2292   -4.6125    0.0000 O   0  0  0  0  0  0  0  0  0  0  0  0
   10.3667   -2.5500    0.0000 C   0  0  0  0  0  0  0  0  0  0  0  0
 11 18  1  0  0  0  0
  4  5  1  0  0  0  0
 18 19  1  0  0  0  0
  2  3  1  0  0  0  0
 19 20  1  0  0  0  0
 20 21  1  0  0  0  0
  5  6  1  0  0  0  0
  1  2  1  0  0  0  0
  8 13  1  0  0  0  0
  9 10  1  0  0  0  0
 10 11  1  0  0  0  0
 20 25  1  0  0  0  0
 21 22  1  0  0  0  0
 22 23  1  0  0  0  0
 23 24  1  0  0  0  0
 24 25  1  0  0  0  0
 11 12  1  0  0  0  0
 23 26  1  0  0  0  0
 12 13  1  0  0  0  0
 26 27  1  0  0  0  0
  6  7  1  0  0  0  0
 27 28  1  0  0  0  0
  2 14  1  0  0  0  0
 28 29  1  0  0  0  0
  3  4  1  0  0  0  0
 29 30  1  0  0  0  0
  5 15  2  0  0  0  0
 30 31  1  0  0  0  0
  7  8  1  0  0  0  0
 31 32  1  0  0  0  0
  9 16  2  0  0  0  0
 22 33  2  0  0  0  0
  8  9  1  0  0  0  0
 24 34  2  0  0  0  0
 13 17  2  0  0  0  0
 28 35  2  0  0  0  0
 31 36  1  0  0  0  0
M  END
> <#>
275

> <PLATE>
LAT004

> <ROW>
C

> <COL>
6

> <COORD>
C06

> <LATID>
LAT004C06

> <Supplier>
Sigma

> <Suplier_CAT#>
S 4692

> <Name>
Sobuzoxane

> <Concentration_(mM)>
2.5

> <IC50_(µM)>
9

> <Yeast_Active?>
-

> <Pubchem_CID>
5233

> <Description>
DNA topoisomerase II inhibitor; induces apoptosis.

$$$$
