
  -ISIS-  08130814242D

 24 26  0  0  0  0  0  0  0  0999 V2000
   -1.8500    0.1000    0.0000 N   0  0  3  0  0  0  0  0  0  0  0  0
   -2.0958    0.4000    0.0000 C   0  0  0  0  0  0  0  0  0  0  0  0
   -1.8708    0.7208    0.0000 N   0  0  0  0  0  0  0  0  0  0  0  0
   -1.4958    0.2458    0.0000 C   0  0  0  0  0  0  0  0  0  0  0  0
   -1.4958    0.6000    0.0000 N   0  0  0  0  0  0  0  0  0  0  0  0
   -1.1500    0.0208    0.0000 S   0  0  0  0  0  0  0  0  0  0  0  0
   -0.4958   -0.4000    0.0000 C   0  0  0  0  0  0  0  0  0  0  0  0
   -0.1708   -0.6042    0.0000 C   0  0  0  0  0  0  0  0  0  0  0  0
   -0.1958   -1.0042    0.0000 C   0  0  0  0  0  0  0  0  0  0  0  0
   -0.4708    0.0000    0.0000 C   0  0  0  0  0  0  0  0  0  0  0  0
   -2.4958    0.4000    0.0000 C   0  0  0  0  0  0  0  0  0  0  0  0
   -0.5500   -1.2000    0.0000 C   0  0  0  0  0  0  0  0  0  0  0  0
   -0.7958    0.2208    0.0000 C   0  0  0  0  0  0  0  0  0  0  0  0
   -0.8500   -0.5667    0.0000 C   0  0  0  0  0  0  0  0  0  0  0  0
   -0.1125    0.1833    0.0000 O   0  0  0  0  0  0  0  0  0  0  0  0
   -0.8958   -0.9500    0.0000 C   0  0  0  0  0  0  0  0  0  0  0  0
   -1.9500   -0.3042    0.0000 C   0  0  0  0  0  0  0  0  0  0  0  0
    0.1500   -1.2292    0.0000 O   0  0  0  0  0  0  0  0  0  0  0  0
   -0.5500   -1.6000    0.0000 O   0  0  0  0  0  0  0  0  0  0  0  0
   -2.6708    0.7458    0.0000 C   0  0  0  0  0  0  0  0  0  0  0  0
   -2.6958    0.0625    0.0000 C   0  0  0  0  0  0  0  0  0  0  0  0
   -3.0708    0.0625    0.0000 C   0  0  0  0  0  0  0  0  0  0  0  0
   -3.0708    0.7458    0.0000 C   0  0  0  0  0  0  0  0  0  0  0  0
   -3.2708    0.4000    0.0000 C   0  0  0  0  0  0  0  0  0  0  0  0
  2  1  1  0  0  0  0
  3  2  2  0  0  0  0
  4  1  1  0  0  0  0
  5  4  2  0  0  0  0
  6  4  1  0  0  0  0
  7 10  1  0  0  0  0
  8  7  1  0  0  0  0
  9  8  2  0  0  0  0
 10 13  1  0  0  0  0
 11  2  1  0  0  0  0
 12 16  2  0  0  0  0
 13  6  1  0  0  0  0
 14  7  2  0  0  0  0
 15 10  2  0  0  0  0
 16 14  1  0  0  0  0
 17  1  1  0  0  0  0
 18  9  1  0  0  0  0
 19 12  1  0  0  0  0
 20 11  2  0  0  0  0
 21 11  1  0  0  0  0
 22 21  2  0  0  0  0
 23 20  1  0  0  0  0
 24 22  1  0  0  0  0
  5  3  1  0  0  0  0
 23 24  2  0  0  0  0
 12  9  1  0  0  0  0
M  END
> <#>
1190

> <PLATE>
LAT015

> <ROW>
F

> <COL>
10

> <COORD>
F10

> <LATID>
LAT015F10

> <Supplier>
Chembridge

> <Suplier_CAT#>
5672011

> <Name>
Novel

> <Concentration_(mM)>
2.5

> <IC50_(µM)>
inactive

> <Yeast_Active?>
-

> <Pubchem_CID>
838842

$$$$
