
  -ISIS-  08130814242D

 22 24  0  0  0  0  0  0  0  0999 V2000
   11.4042  -23.2750    0.0000 C   0  0  0  0  0  0  0  0  0  0  0  0
   11.7917  -23.7042    0.0000 N   0  0  0  0  0  0  0  0  0  0  0  0
   11.7000  -22.7667    0.0000 N   0  0  0  0  0  0  0  0  0  0  0  0
   12.3292  -23.4667    0.0000 C   0  0  0  0  0  0  0  0  0  0  0  0
   12.2750  -22.8875    0.0000 N   0  0  0  0  0  0  0  0  0  0  0  0
   10.8167  -23.3375    0.0000 C   0  0  0  0  0  0  0  0  0  0  0  0
   14.3667  -23.4667    0.0000 C   0  0  0  0  0  0  0  0  0  0  0  0
   14.8792  -23.7667    0.0000 C   0  0  0  0  0  0  0  0  0  0  0  0
   15.3875  -23.4750    0.0000 C   0  0  0  0  0  0  0  0  0  0  0  0
   13.8625  -23.7667    0.0000 C   0  0  0  0  0  0  0  0  0  0  0  0
   12.8417  -23.7667    0.0000 S   0  0  0  0  0  0  0  0  0  0  0  0
   10.4292  -22.9000    0.0000 O   0  0  0  0  0  0  0  0  0  0  0  0
   15.3875  -22.8875    0.0000 C   0  0  0  0  0  0  0  0  0  0  0  0
   10.5167  -23.8417    0.0000 C   0  0  0  0  0  0  0  0  0  0  0  0
    9.8917  -23.1417    0.0000 C   0  0  0  0  0  0  0  0  0  0  0  0
   13.3500  -23.4667    0.0000 C   0  0  0  0  0  0  0  0  0  0  0  0
   14.3667  -22.8875    0.0000 C   0  0  0  0  0  0  0  0  0  0  0  0
    9.9542  -23.7250    0.0000 C   0  0  0  0  0  0  0  0  0  0  0  0
   13.8542  -24.3542    0.0000 O   0  0  0  0  0  0  0  0  0  0  0  0
   14.8750  -22.5917    0.0000 C   0  0  0  0  0  0  0  0  0  0  0  0
   15.8917  -23.7667    0.0000 O   0  0  0  0  0  0  0  0  0  0  0  0
   15.8917  -22.5917    0.0000 O   0  0  0  0  0  0  0  0  0  0  0  0
  2  1  1  0  0  0  0
  3  1  2  0  0  0  0
  4  2  1  0  0  0  0
  5  3  1  0  0  0  0
  6  1  1  0  0  0  0
  7 10  1  0  0  0  0
  8  7  2  0  0  0  0
  9  8  1  0  0  0  0
 10 16  1  0  0  0  0
 11  4  1  0  0  0  0
 12  6  1  0  0  0  0
 13 20  1  0  0  0  0
 14  6  2  0  0  0  0
 15 12  1  0  0  0  0
 16 11  1  0  0  0  0
 17  7  1  0  0  0  0
 18 14  1  0  0  0  0
 19 10  2  0  0  0  0
 20 17  2  0  0  0  0
 21  9  1  0  0  0  0
 22 13  1  0  0  0  0
  4  5  2  0  0  0  0
 15 18  2  0  0  0  0
  9 13  2  0  0  0  0
M  END
> <#>
1265

> <PLATE>
LAT016

> <ROW>
A

> <COL>
10

> <COORD>
A10

> <LATID>
LAT016A10

> <Supplier>
Chembridge

> <Suplier_CAT#>
6617586

> <Name>
Novel

> <Concentration_(mM)>
2.5

> <IC50_(µM)>
inactive

> <Yeast_Active?>
-

> <Pubchem_CID>
NULL

$$$$
