
  -ISIS-  08130814242D

 24 28  0  0  0  0  0  0  0  0999 V2000
    0.2042   -1.0792    0.0000 C   0  0  0  0  0  0  0  0  0  0  0  0
    1.0292   -1.1667    0.0000 C   0  0  0  0  0  0  0  0  0  0  0  0
   -0.2750   -1.7417    0.0000 C   0  0  0  0  0  0  0  0  0  0  0  0
    0.8792   -2.5875    0.0000 C   0  0  0  0  0  0  0  0  0  0  0  0
    0.0625   -2.5000    0.0000 N   0  0  0  0  0  0  0  0  0  0  0  0
    1.3667   -1.9250    0.0000 N   0  0  3  0  0  0  0  0  0  0  0  0
   -0.2750   -0.4125    0.0000 C   0  0  0  0  0  0  0  0  0  0  0  0
    1.3667   -3.2542    0.0000 N   0  0  0  0  0  0  0  0  0  0  0  0
   -1.0583   -1.4917    0.0000 C   0  0  0  0  0  0  0  0  0  0  0  0
   -1.0583   -0.6667    0.0000 C   0  0  0  0  0  0  0  0  0  0  0  0
    1.5167   -0.5000    0.0000 C   0  0  0  0  0  0  0  0  0  0  0  0
    2.1542   -2.1792    0.0000 N   0  0  0  0  0  0  0  0  0  0  0  0
    2.1542   -2.9917    0.0000 C   0  0  0  0  0  0  0  0  0  0  0  0
   -0.0208    0.3750    0.0000 O   0  0  0  0  0  0  0  0  0  0  0  0
    2.3375   -0.5875    0.0000 C   0  0  0  0  0  0  0  0  0  0  0  0
    2.6667   -1.3417    0.0000 Cl  0  0  0  0  0  0  0  0  0  0  0  0
   -1.7708   -1.9042    0.0000 C   0  0  0  0  0  0  0  0  0  0  0  0
   -1.7708   -0.2542    0.0000 C   0  0  0  0  0  0  0  0  0  0  0  0
    1.1792    0.2583    0.0000 C   0  0  0  0  0  0  0  0  0  0  0  0
    2.8250    0.0833    0.0000 C   0  0  0  0  0  0  0  0  0  0  0  0
    1.6667    0.9250    0.0000 C   0  0  0  0  0  0  0  0  0  0  0  0
   -2.4875   -1.4917    0.0000 C   0  0  0  0  0  0  0  0  0  0  0  0
   -2.4875   -0.6667    0.0000 C   0  0  0  0  0  0  0  0  0  0  0  0
    2.4875    0.8375    0.0000 C   0  0  0  0  0  0  0  0  0  0  0  0
  2  1  2  0  0  0  0
  3  1  1  0  0  0  0
  4  5  1  0  0  0  0
  5  3  2  0  0  0  0
  6  2  1  0  0  0  0
  7  1  1  0  0  0  0
  8  4  2  0  0  0  0
  9  3  1  0  0  0  0
 10  7  1  0  0  0  0
 11  2  1  0  0  0  0
 12  6  1  0  0  0  0
 13 12  2  0  0  0  0
 14  7  2  0  0  0  0
 15 11  2  0  0  0  0
 16 15  1  0  0  0  0
 17  9  2  0  0  0  0
 18 10  2  0  0  0  0
 19 11  1  0  0  0  0
 20 15  1  0  0  0  0
 21 19  2  0  0  0  0
 22 17  1  0  0  0  0
 23 18  1  0  0  0  0
 24 21  1  0  0  0  0
 10  9  1  0  0  0  0
  6  4  1  0  0  0  0
 23 22  2  0  0  0  0
  8 13  1  0  0  0  0
 20 24  2  0  0  0  0
M  END
> <#>
1725

> <PLATE>
LAT022

> <ROW>
E

> <COL>
7

> <COORD>
E07

> <LATID>
LAT022E07

> <Supplier>
Chembridge

> <Suplier_CAT#>
7251883

> <Name>
Novel

> <Concentration_(mM)>
2.5

> <IC50_(µM)>
100

> <Yeast_Active?>
-

> <Pubchem_CID>
709305

$$$$
