
  -ISIS-  08130814242D

 20 22  0  0  0  0  0  0  0  0999 V2000
   -0.6333   -1.1792    0.0000 C   0  0  0  0  0  0  0  0  0  0  0  0
   -0.4458   -1.7667    0.0000 C   0  0  0  0  0  0  0  0  0  0  0  0
   -0.2333   -0.7292    0.0000 C   0  0  0  0  0  0  0  0  0  0  0  0
    0.3667   -0.8500    0.0000 N   0  0  3  0  0  0  0  0  0  0  0  0
    0.1667   -1.9000    0.0000 N   0  0  0  0  0  0  0  0  0  0  0  0
    0.5667   -1.4542    0.0000 C   0  0  0  0  0  0  0  0  0  0  0  0
   -0.9458   -2.1292    0.0000 S   0  0  0  0  0  0  0  0  0  0  0  0
   -1.2333   -1.1792    0.0000 C   0  0  0  0  0  0  0  0  0  0  0  0
   -1.4125   -1.7542    0.0000 C   0  0  0  0  0  0  0  0  0  0  0  0
    0.7542   -0.3667    0.0000 N   0  0  0  0  0  0  0  0  0  0  0  0
    1.3542   -0.4500    0.0000 C   0  0  0  0  0  0  0  0  0  0  0  0
   -0.3958   -0.1167    0.0000 O   0  0  0  0  0  0  0  0  0  0  0  0
    1.7500    0.0333    0.0000 N   0  0  3  0  0  0  0  0  0  0  0  0
    1.1542   -1.6167    0.0000 C   0  0  0  0  0  0  0  0  0  0  0  0
   -1.6500   -0.7500    0.0000 C   0  0  0  0  0  0  0  0  0  0  0  0
   -2.0125   -1.9042    0.0000 C   0  0  0  0  0  0  0  0  0  0  0  0
    1.5042    0.5958    0.0000 C   0  0  0  0  0  0  0  0  0  0  0  0
    2.3500   -0.0500    0.0000 C   0  0  0  0  0  0  0  0  0  0  0  0
   -2.2458   -0.8792    0.0000 C   0  0  0  0  0  0  0  0  0  0  0  0
   -2.4208   -1.4542    0.0000 C   0  0  0  0  0  0  0  0  0  0  0  0
  2  1  2  0  0  0  0
  3  1  1  0  0  0  0
  4  3  1  0  0  0  0
  5  2  1  0  0  0  0
  6  4  1  0  0  0  0
  7  2  1  0  0  0  0
  8  1  1  0  0  0  0
  9  8  2  0  0  0  0
 10  4  1  0  0  0  0
 11 10  2  0  0  0  0
 12  3  2  0  0  0  0
 13 11  1  0  0  0  0
 14  6  1  0  0  0  0
 15  8  1  0  0  0  0
 16  9  1  0  0  0  0
 17 13  1  0  0  0  0
 18 13  1  0  0  0  0
 19 15  1  0  0  0  0
 20 19  1  0  0  0  0
  7  9  1  0  0  0  0
  6  5  2  0  0  0  0
 16 20  1  0  0  0  0
M  END
> <#>
1814

> <PLATE>
LAT023

> <ROW>
F

> <COL>
8

> <COORD>
F08

> <LATID>
LAT023F08

> <Supplier>
Chembridge

> <Suplier_CAT#>
5637862

> <Name>
Novel

> <Sec_Name>
195_B05

> <Concentration_(mM)>
2.5

> <IC50_(µM)>
9

> <Yeast_Active?>
-

> <Pubchem_CID>
2857286

$$$$
