
  -ISIS-  08130814242D

 18 19  0  0  0  0  0  0  0  0999 V2000
   -0.1458   -0.3875    0.0000 C   0  0  0  0  0  0  0  0  0  0  0  0
    0.6667   -0.8500    0.0000 C   0  0  0  0  0  0  0  0  0  0  0  0
   -0.9458   -0.8542    0.0000 C   0  0  0  0  0  0  0  0  0  0  0  0
    1.4792   -0.3792    0.0000 C   0  0  0  0  0  0  0  0  0  0  0  0
    2.2875   -0.8500    0.0000 C   0  0  0  0  0  0  0  0  0  0  0  0
    0.6667   -1.7792    0.0000 O   0  0  0  0  0  0  0  0  0  0  0  0
   -1.7458   -0.4000    0.0000 C   0  0  0  0  0  0  0  0  0  0  0  0
   -0.9458   -1.7875    0.0000 N   0  0  0  0  0  0  0  0  0  0  0  0
    2.2875   -1.7792    0.0000 O   0  0  0  0  0  0  0  0  0  0  0  0
    1.4792    0.5625    0.0000 C   0  0  0  0  0  0  0  0  0  0  0  0
    3.1000   -0.3792    0.0000 C   0  0  0  0  0  0  0  0  0  0  0  0
   -1.7458    0.5458    0.0000 C   0  0  0  0  0  0  0  0  0  0  0  0
   -2.5500   -0.8667    0.0000 C   0  0  0  0  0  0  0  0  0  0  0  0
    2.2875    1.0333    0.0000 C   0  0  0  0  0  0  0  0  0  0  0  0
   -2.5625    1.0208    0.0000 C   0  0  0  0  0  0  0  0  0  0  0  0
   -3.3708   -0.4000    0.0000 C   0  0  0  0  0  0  0  0  0  0  0  0
    3.1000    0.5625    0.0000 C   0  0  0  0  0  0  0  0  0  0  0  0
   -3.3833    0.5458    0.0000 C   0  0  0  0  0  0  0  0  0  0  0  0
  2  1  1  0  0  0  0
  3  1  2  0  0  0  0
  4  2  1  0  0  0  0
  5  4  2  0  0  0  0
  6  2  2  0  0  0  0
  7  3  1  0  0  0  0
  8  3  1  0  0  0  0
  9  5  1  0  0  0  0
 10  4  1  0  0  0  0
 11  5  1  0  0  0  0
 12  7  2  0  0  0  0
 13  7  1  0  0  0  0
 14 10  2  0  0  0  0
 15 12  1  0  0  0  0
 16 13  2  0  0  0  0
 17 14  1  0  0  0  0
 18 16  1  0  0  0  0
 18 15  2  0  0  0  0
 17 11  2  0  0  0  0
M  END
> <#>
1211

> <PLATE>
LAT016

> <ROW>
C

> <COL>
3

> <COORD>
C03

> <LATID>
LAT016C03

> <Supplier>
Chembridge

> <Suplier_CAT#>
5563138

> <Name>
Novel

> <Concentration_(mM)>
2.5

> <IC50_(µM)>
100

> <Yeast_Active?>
-

> <Pubchem_CID>
2852918

$$$$
