
  -ISIS-  08130814242D

 27 28  0  0  0  0  0  0  0  0999 V2000
    1.7000    3.0000    0.0000 C   0  0  0  0  0  0  0  0  0  0  0  0
    2.3417    1.8750    0.0000 C   0  0  0  0  0  0  0  0  0  0  0  0
    1.7000    2.2500    0.0000 C   0  0  0  0  0  0  0  0  0  0  0  0
    5.5917    3.0000    0.0000 C   0  0  0  0  0  0  0  0  0  0  0  0
    2.9917    3.0000    0.0000 C   0  0  0  0  0  0  0  0  0  0  0  0
    2.3417    3.3750    0.0000 C   0  0  0  0  0  0  0  0  0  0  0  0
    2.9917    2.2500    0.0000 C   0  0  0  0  0  0  0  0  0  0  0  0
    5.5917    2.2500    0.0000 N   0  0  0  0  0  0  0  0  0  0  0  0
    6.2417    3.3750    0.0000 N   0  0  0  0  0  0  0  0  0  0  0  0
    3.6417    3.3750    0.0000 C   0  0  0  0  0  0  0  0  0  0  0  0
    1.0500    3.3750    0.0000 C   0  0  3  0  0  0  0  0  0  0  0  0
    2.3417    1.1250    0.0000 C   0  0  3  0  0  0  0  0  0  0  0  0
    4.9417    3.3750    0.0000 S   0  0  0  0  0  0  0  0  0  0  0  0
    6.2417    1.8750    0.0000 C   0  0  0  0  0  0  0  0  0  0  0  0
    6.8917    3.0000    0.0000 C   0  0  0  0  0  0  0  0  0  0  0  0
    6.8917    2.2500    0.0000 C   0  0  0  0  0  0  0  0  0  0  0  0
    4.2917    3.0000    0.0000 C   0  0  0  0  0  0  0  0  0  0  0  0
    3.6417    4.1167    0.0000 O   0  0  0  0  0  0  0  0  0  0  0  0
    1.0500    1.8750    0.0000 O   0  0  0  0  0  0  0  0  0  0  0  0
    3.0667    0.9333    0.0000 C   0  0  0  0  0  0  0  0  0  0  0  0
    1.6000    1.1958    0.0000 C   0  0  0  0  0  0  0  0  0  0  0  0
    2.2167    0.3875    0.0000 C   0  0  0  0  0  0  0  0  0  0  0  0
    1.2417    4.0917    0.0000 C   0  0  0  0  0  0  0  0  0  0  0  0
    0.3417    3.6333    0.0000 C   0  0  0  0  0  0  0  0  0  0  0  0
    0.7292    2.6958    0.0000 C   0  0  0  0  0  0  0  0  0  0  0  0
    7.5417    3.3750    0.0000 C   0  0  0  0  0  0  0  0  0  0  0  0
    6.2417    1.1250    0.0000 C   0  0  0  0  0  0  0  0  0  0  0  0
  2  3  2  0  0  0  0
  3  1  1  0  0  0  0
  4 13  1  0  0  0  0
  5  6  1  0  0  0  0
  6  1  2  0  0  0  0
  7  5  2  0  0  0  0
  8  4  1  0  0  0  0
  9  4  2  0  0  0  0
 10  5  1  0  0  0  0
 11  1  1  0  0  0  0
 12  2  1  0  0  0  0
 13 17  1  0  0  0  0
 14  8  2  0  0  0  0
 15  9  1  0  0  0  0
 16 15  2  0  0  0  0
 17 10  1  0  0  0  0
 18 10  2  0  0  0  0
 19  3  1  0  0  0  0
 20 12  1  0  0  0  0
 21 12  1  0  0  0  0
 22 12  1  0  0  0  0
 23 11  1  0  0  0  0
 24 11  1  0  0  0  0
 25 11  1  0  0  0  0
 26 15  1  0  0  0  0
 27 14  1  0  0  0  0
  2  7  1  0  0  0  0
 14 16  1  0  0  0  0
M  END
> <#>
1382

> <PLATE>
LAT018

> <ROW>
F

> <COL>
4

> <COORD>
F04

> <LATID>
LAT018F04

> <Supplier>
Chembridge

> <Suplier_CAT#>
7738153

> <Name>
Novel

> <Concentration_(mM)>
2.5

> <IC50_(µM)>
inactive

> <Yeast_Active?>
-

> <Pubchem_CID>
1289066

$$$$
