
  -ISIS-  08130814242D

 18 20  0  0  0  0  0  0  0  0999 V2000
   -2.3833    2.3458    0.0000 C   0  0  0  0  0  0  0  0  0  0  0  0
   -2.3833    1.6458    0.0000 C   0  0  0  0  0  0  0  0  0  0  0  0
   -3.0458    1.4458    0.0000 O   0  0  0  0  0  0  0  0  0  0  0  0
   -3.0458    2.5458    0.0000 C   0  0  0  0  0  0  0  0  0  0  0  0
   -3.4208    2.0000    0.0000 C   0  0  3  0  0  0  0  0  0  0  0  0
   -1.2000    1.6458    0.0000 C   0  0  0  0  0  0  0  0  0  0  0  0
   -1.7833    2.6833    0.0000 C   0  0  0  0  0  0  0  0  0  0  0  0
   -0.6000    1.3000    0.0000 O   0  0  0  0  0  0  0  0  0  0  0  0
   -1.7833    1.3000    0.0000 C   0  0  0  0  0  0  0  0  0  0  0  0
   -1.2000    2.3458    0.0000 C   0  0  0  0  0  0  0  0  0  0  0  0
    0.0000    1.6458    0.0000 C   0  0  0  0  0  0  0  0  0  0  0  0
   -0.6000    2.6833    0.0000 C   0  0  0  0  0  0  0  0  0  0  0  0
    0.0000    2.3458    0.0000 C   0  0  0  0  0  0  0  0  0  0  0  0
   -3.2500    3.1708    0.0000 O   0  0  0  0  0  0  0  0  0  0  0  0
    0.6000    1.3000    0.0000 O   0  0  0  0  0  0  0  0  0  0  0  0
   -4.1208    2.0000    0.0000 C   0  0  3  0  0  0  0  0  0  0  0  0
   -4.4708    2.6000    0.0000 C   0  0  0  0  0  0  0  0  0  0  0  0
   -4.4708    1.4208    0.0000 C   0  0  0  0  0  0  0  0  0  0  0  0
  2  1  1  0  0  0  0
  3  2  1  0  0  0  0
  4  1  1  0  0  0  0
  5  4  1  0  0  0  0
  6 10  2  0  0  0  0
  7  1  2  0  0  0  0
  8  6  1  0  0  0  0
  9  2  2  0  0  0  0
 10  7  1  0  0  0  0
 11 13  1  0  0  0  0
 12 10  1  0  0  0  0
 13 12  2  0  0  0  0
 14  4  2  0  0  0  0
 15 11  2  0  0  0  0
 16  5  1  0  0  0  0
 17 16  1  0  0  0  0
 18 16  1  0  0  0  0
  5  3  1  0  0  0  0
  6  9  1  0  0  0  0
  8 11  1  0  0  0  0
M  END
> <#>
1120

> <PLATE>
LAT014

> <ROW>
H

> <COL>
11

> <COORD>
H11

> <LATID>
LAT014H11

> <Supplier>
Chembridge

> <Suplier_CAT#>
5325428

> <Name>
Novel

> <Concentration_(mM)>
2.5

> <IC50_(µM)>
>100

> <Yeast_Active?>
-

> <Pubchem_CID>
677579

$$$$
