
  -ISIS-  08130814242D

 23 24  0  0  0  0  0  0  0  0999 V2000
   12.2375  -15.8167    0.0000 C   0  0  0  0  0  0  0  0  0  0  0  0
    6.9667  -16.9792    0.0000 N   0  0  0  0  0  0  0  0  0  0  0  0
    7.5417  -15.5542    0.0000 N   0  0  0  0  0  0  0  0  0  0  0  0
    7.6667  -16.4375    0.0000 C   0  0  0  0  0  0  0  0  0  0  0  0
   11.5375  -16.3542    0.0000 C   0  0  0  0  0  0  0  0  0  0  0  0
    6.1500  -16.6500    0.0000 C   0  0  0  0  0  0  0  0  0  0  0  0
   13.0542  -16.1542    0.0000 C   0  0  0  0  0  0  0  0  0  0  0  0
    6.7167  -15.2250    0.0000 C   0  0  0  0  0  0  0  0  0  0  0  0
    6.0292  -15.7667    0.0000 C   0  0  0  0  0  0  0  0  0  0  0  0
   10.7042  -16.0167    0.0000 C   0  0  0  0  0  0  0  0  0  0  0  0
   12.1167  -14.9375    0.0000 C   0  0  0  0  0  0  0  0  0  0  0  0
   10.0125  -16.5625    0.0000 C   0  0  0  0  0  0  0  0  0  0  0  0
    8.4917  -16.7667    0.0000 S   0  0  0  0  0  0  0  0  0  0  0  0
   13.7625  -15.5917    0.0000 O   0  0  0  0  0  0  0  0  0  0  0  0
    9.1917  -16.2250    0.0000 C   0  0  0  0  0  0  0  0  0  0  0  0
   10.5917  -15.1417    0.0000 C   0  0  0  0  0  0  0  0  0  0  0  0
   10.1292  -17.4417    0.0000 O   0  0  0  0  0  0  0  0  0  0  0  0
   11.2917  -14.6000    0.0000 C   0  0  0  0  0  0  0  0  0  0  0  0
    5.4500  -17.1917    0.0000 N   0  0  0  0  0  0  0  0  0  0  0  0
    6.5917  -14.3417    0.0000 O   0  0  0  0  0  0  0  0  0  0  0  0
   13.1667  -17.0250    0.0000 O   0  0  0  0  0  0  0  0  0  0  0  0
   12.8167  -14.3917    0.0000 O   0  0  0  0  0  0  0  0  0  0  0  0
   13.9792  -17.3667    0.0000 C   0  0  0  0  0  0  0  0  0  0  0  0
  2  4  2  0  0  0  0
  3  4  1  0  0  0  0
  4 13  1  0  0  0  0
  5  1  1  0  0  0  0
  6  2  1  0  0  0  0
  7  1  1  0  0  0  0
  8  3  2  0  0  0  0
  9  8  1  0  0  0  0
 10  5  2  0  0  0  0
 11  1  2  0  0  0  0
 12 10  1  0  0  0  0
 13 15  1  0  0  0  0
 14  7  2  0  0  0  0
 15 12  1  0  0  0  0
 16 18  2  0  0  0  0
 17 12  2  0  0  0  0
 18 11  1  0  0  0  0
 19  6  1  0  0  0  0
 20  8  1  0  0  0  0
 21  7  1  0  0  0  0
 22 11  1  0  0  0  0
 23 21  1  0  0  0  0
 10 16  1  0  0  0  0
  9  6  2  0  0  0  0
M  END
> <#>
1198

> <PLATE>
LAT015

> <ROW>
F

> <COL>
11

> <COORD>
F11

> <LATID>
LAT015F11

> <Supplier>
Chembridge

> <Suplier_CAT#>
5809808

> <Name>
Novel

> <Concentration_(mM)>
2.5

> <IC50_(µM)>
inactive

> <Yeast_Active?>
-

> <Pubchem_CID>
NULL

$$$$
