
  -ISIS-  08130814242D

 22 25  0  0  0  0  0  0  0  0999 V2000
   -0.9333   -0.1667    0.0000 N   0  0  3  0  0  0  0  0  0  0  0  0
   -1.3958    0.2708    0.0000 C   0  0  0  0  0  0  0  0  0  0  0  0
   -1.1333    0.8333    0.0000 N   0  0  0  0  0  0  0  0  0  0  0  0
   -0.3958    0.1500    0.0000 C   0  0  0  0  0  0  0  0  0  0  0  0
   -0.9333   -0.7875    0.0000 C   0  0  0  0  0  0  0  0  0  0  0  0
   -0.5333    0.7708    0.0000 N   0  0  0  0  0  0  0  0  0  0  0  0
   -2.0125    0.1708    0.0000 C   0  0  0  0  0  0  0  0  0  0  0  0
   -0.3958   -1.1042    0.0000 C   0  0  0  0  0  0  0  0  0  0  0  0
    0.2042   -0.1042    0.0000 S   0  0  0  0  0  0  0  0  0  0  0  0
   -2.8708   -0.5167    0.0000 N   0  0  0  0  0  0  0  0  0  0  0  0
   -0.3958   -1.7292    0.0000 C   0  0  0  0  0  0  0  0  0  0  0  0
   -1.4708   -1.1042    0.0000 C   0  0  0  0  0  0  0  0  0  0  0  0
   -2.2458   -0.4292    0.0000 C   0  0  0  0  0  0  0  0  0  0  0  0
   -2.4125    0.6625    0.0000 C   0  0  0  0  0  0  0  0  0  0  0  0
    0.1500   -0.7875    0.0000 C   0  0  0  0  0  0  0  0  0  0  0  0
   -1.4708   -1.7292    0.0000 C   0  0  0  0  0  0  0  0  0  0  0  0
   -3.2708   -0.0292    0.0000 C   0  0  0  0  0  0  0  0  0  0  0  0
   -0.9333   -2.0500    0.0000 C   0  0  0  0  0  0  0  0  0  0  0  0
    0.1500   -2.0500    0.0000 C   0  0  0  0  0  0  0  0  0  0  0  0
   -3.0458    0.5708    0.0000 C   0  0  0  0  0  0  0  0  0  0  0  0
    0.6875   -1.1042    0.0000 C   0  0  0  0  0  0  0  0  0  0  0  0
    0.6875   -1.7292    0.0000 C   0  0  0  0  0  0  0  0  0  0  0  0
  2  1  1  0  0  0  0
  3  2  2  0  0  0  0
  4  1  1  0  0  0  0
  5  1  1  0  0  0  0
  6  4  1  0  0  0  0
  7  2  1  0  0  0  0
  8  5  2  0  0  0  0
  9  4  2  0  0  0  0
 10 13  1  0  0  0  0
 11  8  1  0  0  0  0
 12  5  1  0  0  0  0
 13  7  2  0  0  0  0
 14  7  1  0  0  0  0
 15  8  1  0  0  0  0
 16 12  2  0  0  0  0
 17 20  1  0  0  0  0
 18 16  1  0  0  0  0
 19 11  1  0  0  0  0
 20 14  2  0  0  0  0
 21 15  2  0  0  0  0
 22 21  1  0  0  0  0
  6  3  1  0  0  0  0
 11 18  2  0  0  0  0
 22 19  2  0  0  0  0
 10 17  2  0  0  0  0
M  END
> <#>
1644

> <PLATE>
LAT021

> <ROW>
D

> <COL>
7

> <COORD>
D07

> <LATID>
LAT021D07

> <Supplier>
Chembridge

> <Suplier_CAT#>
7492009

> <Name>
Novel

> <Concentration_(mM)>
2.5

> <IC50_(µM)>
>100

> <Yeast_Active?>
-

> <Pubchem_CID>
891655

$$$$
