
  -ISIS-  08130814242D

 21 24  0  0  0  0  0  0  0  0999 V2000
    6.2292    0.9125    0.0000 C   0  0  3  0  0  0  0  0  0  0  0  0
    0.6792   -2.2250    0.0000 C   0  0  0  0  0  0  0  0  0  0  0  0
    2.5542    0.9458    0.0000 N   0  0  0  0  0  0  0  0  0  0  0  0
   13.6917    1.3833    0.0000 C   0  0  3  0  0  0  0  0  0  0  0  0
   10.2667    4.9417    0.0000 C   0  0  3  0  0  0  0  0  0  0  0  0
   11.7125   -0.6750    0.0000 C   0  0  3  0  0  0  0  0  0  0  0  0
   -3.0083   -2.2250    0.0000 N   0  0  0  0  0  0  0  0  0  0  0  0
    9.6042    0.0708    0.0000 C   0  0  0  0  0  0  0  0  0  0  0  0
    7.0042    4.0625    0.0000 C   0  0  0  0  0  0  0  0  0  0  0  0
    8.5167   -1.3750    0.0000 C   0  0  0  0  0  0  0  0  0  0  0  0
  -10.4917    4.0792    0.0000 N   0  0  0  0  0  0  0  0  0  0  0  0
    2.5167   -5.4125    0.0000 O   0  0  0  0  0  0  0  0  0  0  0  0
   12.8417    2.4250    0.0000 C   0  0  0  0  0  0  0  0  0  0  0  0
   16.0000   -1.5042    0.0000 C   0  0  0  0  0  0  0  0  0  0  0  0
   14.5542    5.4042    0.0000 C   0  0  0  0  0  0  0  0  0  0  0  0
   -8.5542    0.9208    0.0000 C   0  0  0  0  0  0  0  0  0  0  0  0
   -4.8708    0.9458    0.0000 C   0  0  0  0  0  0  0  0  0  0  0  0
  -14.1792    4.0042    0.0000 C   0  0  0  0  0  0  0  0  0  0  0  0
  -10.3750   -2.2667    0.0000 C   0  0  0  0  0  0  0  0  0  0  0  0
  -16.0000    0.8083    0.0000 C   0  0  0  0  0  0  0  0  0  0  0  0
  -14.0625   -2.3375    0.0000 C   0  0  0  0  0  0  0  0  0  0  0  0
  2  3  1  0  0  0  0
  3  1  1  0  0  0  0
  4  8  1  0  0  0  0
  5  9  1  0  0  0  0
  6 10  1  0  0  0  0
  7  2  1  0  0  0  0
  8  1  1  0  0  0  0
  9  1  1  0  0  0  0
 10  1  1  0  0  0  0
 11 16  2  0  0  0  0
 12  2  2  0  0  0  0
 13  6  1  0  0  0  0
 14  6  1  0  0  0  0
 15  5  1  0  0  0  0
 16 17  1  0  0  0  0
 17  7  1  0  0  0  0
 18 11  1  0  0  0  0
 19 16  1  0  0  0  0
 20 21  1  0  0  0  0
 21 19  2  0  0  0  0
 14  4  1  0  0  0  0
  5 13  1  0  0  0  0
 15  4  1  0  0  0  0
 20 18  2  0  0  0  0
M  END
> <#>
1532

> <PLATE>
LAT020

> <ROW>
D

> <COL>
3

> <COORD>
D03

> <LATID>
LAT020D03

> <Supplier>
Chembridge

> <Suplier_CAT#>
7785178

> <Name>
Novel

> <Concentration_(mM)>
2.5

> <IC50_(µM)>
inactive

> <Yeast_Active?>
-

> <Pubchem_CID>
2954328

$$$$
