
  -ISIS-  08130814242D

 23 25  0  0  0  0  0  0  0  0999 V2000
    3.6042   -2.7000    0.0000 N   0  0  0  0  0  0  0  0  0  0  0  0
    4.5375   -1.0542    0.0000 C   0  0  0  0  0  0  0  0  0  0  0  0
    4.5375   -2.1542    0.0000 C   0  0  0  0  0  0  0  0  0  0  0  0
    3.6042   -0.5292    0.0000 C   0  0  0  0  0  0  0  0  0  0  0  0
    2.6542   -2.1542    0.0000 C   0  0  0  0  0  0  0  0  0  0  0  0
    6.4292   -1.0542    0.0000 N   0  0  0  0  0  0  0  0  0  0  0  0
    8.3042   -1.0542    0.0000 C   0  0  0  0  0  0  0  0  0  0  0  0
    2.6542   -1.0542    0.0000 C   0  0  0  0  0  0  0  0  0  0  0  0
    5.5000   -0.5292    0.0000 C   0  0  0  0  0  0  0  0  0  0  0  0
    7.3792   -0.5292    0.0000 N   0  0  0  0  0  0  0  0  0  0  0  0
    8.3042   -2.1542    0.0000 O   0  0  0  0  0  0  0  0  0  0  0  0
    5.5000   -2.7000    0.0000 Cl  0  0  0  0  0  0  0  0  0  0  0  0
    9.2667   -0.5292    0.0000 C   0  0  0  0  0  0  0  0  0  0  0  0
   10.2000   -1.0542    0.0000 C   0  0  0  0  0  0  0  0  0  0  0  0
    1.7292   -2.6542    0.0000 C   0  0  0  0  0  0  0  0  0  0  0  0
    1.7292   -0.5000    0.0000 C   0  0  0  0  0  0  0  0  0  0  0  0
   10.2000   -2.1542    0.0000 C   0  0  0  0  0  0  0  0  0  0  0  0
   11.1792   -0.5000    0.0000 C   0  0  0  0  0  0  0  0  0  0  0  0
    0.7667   -2.1542    0.0000 C   0  0  0  0  0  0  0  0  0  0  0  0
    0.7667   -1.0542    0.0000 C   0  0  0  0  0  0  0  0  0  0  0  0
   11.1542   -2.7292    0.0000 C   0  0  0  0  0  0  0  0  0  0  0  0
   12.1042   -1.0542    0.0000 C   0  0  0  0  0  0  0  0  0  0  0  0
   12.1042   -2.2000    0.0000 C   0  0  0  0  0  0  0  0  0  0  0  0
  2  3  1  0  0  0  0
  3  1  2  0  0  0  0
  4  8  1  0  0  0  0
  5  1  1  0  0  0  0
  6  9  2  0  0  0  0
  7 10  1  0  0  0  0
  8  5  2  0  0  0  0
  9  2  1  0  0  0  0
 10  6  1  0  0  0  0
 11  7  2  0  0  0  0
 12  3  1  0  0  0  0
 13  7  1  0  0  0  0
 14 13  1  0  0  0  0
 15  5  1  0  0  0  0
 16  8  1  0  0  0  0
 17 14  1  0  0  0  0
 18 14  2  0  0  0  0
 19 15  2  0  0  0  0
 20 19  1  0  0  0  0
 21 17  2  0  0  0  0
 22 18  1  0  0  0  0
 23 22  2  0  0  0  0
  2  4  2  0  0  0  0
 16 20  2  0  0  0  0
 23 21  1  0  0  0  0
M  END
> <#>
1609

> <PLATE>
LAT021

> <ROW>
A

> <COL>
3

> <COORD>
A03

> <LATID>
LAT021A03

> <Supplier>
Chembridge

> <Suplier_CAT#>
5200758

> <Name>
Novel

> <Concentration_(mM)>
2.5

> <IC50_(µM)>
>100

> <Yeast_Active?>
-

> <Pubchem_CID>
780685

$$$$
