
  -ISIS-  08130814242D

 26 28  0  0  0  0  0  0  0  0999 V2000
    0.2000    0.2000    0.0000 N   0  0  3  0  0  0  0  0  0  0  0  0
    0.2167   -0.4542    0.0000 C   0  0  0  0  0  0  0  0  0  0  0  0
    1.2042   -0.0917    0.0000 C   0  0  3  0  0  0  0  0  0  0  0  0
    1.8875   -0.0917    0.0000 C   0  0  0  0  0  0  0  0  0  0  0  0
    0.8042    0.4208    0.0000 C   0  0  0  0  0  0  0  0  0  0  0  0
    4.1875   -0.6500    0.0000 C   0  0  3  0  0  0  0  0  0  0  0  0
    0.8542   -0.6375    0.0000 C   0  0  0  0  0  0  0  0  0  0  0  0
    2.2167    0.4833    0.0000 N   0  0  0  0  0  0  0  0  0  0  0  0
    3.8542   -0.0875    0.0000 C   0  0  0  0  0  0  0  0  0  0  0  0
   -0.3000    0.6208    0.0000 C   0  0  0  0  0  0  0  0  0  0  0  0
   -0.2958   -0.8667    0.0000 O   0  0  0  0  0  0  0  0  0  0  0  0
    2.8792    0.4708    0.0000 C   0  0  0  0  0  0  0  0  0  0  0  0
    2.2292   -0.6542    0.0000 O   0  0  0  0  0  0  0  0  0  0  0  0
    3.2042   -0.0875    0.0000 C   0  0  0  0  0  0  0  0  0  0  0  0
    4.8375   -0.6500    0.0000 F   0  0  0  0  0  0  0  0  0  0  0  0
    3.8667   -1.2042    0.0000 F   0  0  0  0  0  0  0  0  0  0  0  0
    4.6500   -0.1875    0.0000 F   0  0  0  0  0  0  0  0  0  0  0  0
   -0.9208    0.3958    0.0000 C   0  0  0  0  0  0  0  0  0  0  0  0
   -0.1958    1.2833    0.0000 C   0  0  0  0  0  0  0  0  0  0  0  0
   -1.3125    1.4708    0.0000 C   0  0  0  0  0  0  0  0  0  0  0  0
   -0.6958    1.6958    0.0000 C   0  0  0  0  0  0  0  0  0  0  0  0
   -1.4333    0.8125    0.0000 C   0  0  0  0  0  0  0  0  0  0  0  0
   -1.8000    1.9000    0.0000 Cl  0  0  0  0  0  0  0  0  0  0  0  0
    4.1792    0.4708    0.0000 C   0  0  0  0  0  0  0  0  0  0  0  0
    3.8500    1.0625    0.0000 C   0  0  0  0  0  0  0  0  0  0  0  0
    3.2042    1.0458    0.0000 C   0  0  0  0  0  0  0  0  0  0  0  0
  2  1  1  0  0  0  0
  3  5  1  0  0  0  0
  4  3  1  0  0  0  0
  5  1  1  0  0  0  0
  6  9  1  0  0  0  0
  7  2  1  0  0  0  0
  8  4  1  0  0  0  0
  9 14  1  0  0  0  0
 10  1  1  0  0  0  0
 11  2  2  0  0  0  0
 12  8  1  0  0  0  0
 13  4  2  0  0  0  0
 14 12  2  0  0  0  0
 15  6  1  0  0  0  0
 16  6  1  0  0  0  0
 17  6  1  0  0  0  0
 18 10  1  0  0  0  0
 19 10  2  0  0  0  0
 20 21  2  0  0  0  0
 21 19  1  0  0  0  0
 22 18  2  0  0  0  0
 23 20  1  0  0  0  0
 24 25  1  0  0  0  0
 25 26  2  0  0  0  0
 26 12  1  0  0  0  0
  7  3  1  0  0  0  0
 22 20  1  0  0  0  0
  9 24  2  0  0  0  0
M  END
> <#>
711

> <PLATE>
LAT009

> <ROW>
G

> <COL>
10

> <COORD>
G10

> <LATID>
LAT009G10

> <Supplier>
Chembridge

> <Suplier_CAT#>
5543433

> <Name>
Flurolamide

> <Sec_Name>
160_C06

> <Concentration_(mM)>
2.5

> <IC50_(µM)>
5.5

> <Yeast_Active?>
-

> <Pubchem_CID>
1103942

$$$$
