
  -ISIS-  08130814242D

 25 26  0  0  0  0  0  0  0  0999 V2000
    6.2375    1.3708    0.0000 S   0  0  3  0  0  0  0  0  0  0  0  0
    5.7042    1.8958    0.0000 N   0  0  0  0  0  0  0  0  0  0  0  0
    6.8792    1.7458    0.0000 C   0  0  0  0  0  0  0  0  0  0  0  0
    4.9792    1.7083    0.0000 C   0  0  3  0  0  0  0  0  0  0  0  0
    4.4500    2.2333    0.0000 C   0  0  0  0  0  0  0  0  0  0  0  0
    7.5292    1.3708    0.0000 C   0  0  0  0  0  0  0  0  0  0  0  0
    8.1792    1.7458    0.0000 C   0  0  0  0  0  0  0  0  0  0  0  0
    5.6625    0.8833    0.0000 O   0  0  0  0  0  0  0  0  0  0  0  0
    6.6667    0.7500    0.0000 O   0  0  0  0  0  0  0  0  0  0  0  0
    3.7250    2.0375    0.0000 N   0  0  0  0  0  0  0  0  0  0  0  0
    8.1792    2.4958    0.0000 C   0  0  0  0  0  0  0  0  0  0  0  0
    1.9417    2.9083    0.0000 N   0  0  0  0  0  0  0  0  0  0  0  0
    4.6417    2.9583    0.0000 O   0  0  0  0  0  0  0  0  0  0  0  0
    6.8792    2.4958    0.0000 C   0  0  0  0  0  0  0  0  0  0  0  0
    7.5292    2.8708    0.0000 C   0  0  0  0  0  0  0  0  0  0  0  0
    3.1917    2.5708    0.0000 C   0  0  0  0  0  0  0  0  0  0  0  0
    2.4667    2.3750    0.0000 C   0  0  0  0  0  0  0  0  0  0  0  0
    8.8292    1.3708    0.0000 Cl  0  0  0  0  0  0  0  0  0  0  0  0
    8.8292    2.8708    0.0000 O   0  0  0  0  0  0  0  0  0  0  0  0
    4.7875    0.9833    0.0000 C   0  0  0  0  0  0  0  0  0  0  0  0
    1.2167    2.7125    0.0000 C   0  0  0  0  0  0  0  0  0  0  0  0
    2.2750    1.6500    0.0000 C   0  0  0  0  0  0  0  0  0  0  0  0
    8.8292    3.6208    0.0000 C   0  0  0  0  0  0  0  0  0  0  0  0
    1.0167    1.9875    0.0000 C   0  0  0  0  0  0  0  0  0  0  0  0
    1.5542    1.4583    0.0000 C   0  0  0  0  0  0  0  0  0  0  0  0
  2  1  1  0  0  0  0
  3  1  1  0  0  0  0
  4  2  1  0  0  0  0
  5  4  1  0  0  0  0
  6  3  1  0  0  0  0
  7  6  2  0  0  0  0
  8  1  2  0  0  0  0
  9  1  2  0  0  0  0
 10  5  1  0  0  0  0
 11 15  2  0  0  0  0
 12 17  2  0  0  0  0
 13  5  2  0  0  0  0
 14  3  2  0  0  0  0
 15 14  1  0  0  0  0
 16 10  1  0  0  0  0
 17 16  1  0  0  0  0
 18  7  1  0  0  0  0
 19 11  1  0  0  0  0
 20  4  1  0  0  0  0
 21 12  1  0  0  0  0
 22 17  1  0  0  0  0
 23 19  1  0  0  0  0
 24 25  1  0  0  0  0
 25 22  2  0  0  0  0
 11  7  1  0  0  0  0
 21 24  2  0  0  0  0
M  END
> <#>
1554

> <PLATE>
LAT020

> <ROW>
B

> <COL>
6

> <COORD>
B06

> <LATID>
LAT020B06

> <Supplier>
Chembridge

> <Suplier_CAT#>
7996314

> <Name>
Novel

> <Concentration_(mM)>
2.5

> <IC50_(µM)>
inactive

> <Yeast_Active?>
-

> <Pubchem_CID>
2986914

$$$$
