
  -ISIS-  08130814242D

 21 23  0  0  0  0  0  0  0  0999 V2000
   -0.5708    0.3833    0.0000 C   0  0  0  0  0  0  0  0  0  0  0  0
   -0.5708   -0.0167    0.0000 C   0  0  0  0  0  0  0  0  0  0  0  0
   -0.9333    0.6000    0.0000 C   0  0  0  0  0  0  0  0  0  0  0  0
   -0.9333   -0.2167    0.0000 C   0  0  0  0  0  0  0  0  0  0  0  0
   -1.2958    0.4000    0.0000 C   0  0  0  0  0  0  0  0  0  0  0  0
   -0.2125    0.6000    0.0000 C   0  0  0  0  0  0  0  0  0  0  0  0
   -1.2958   -0.0167    0.0000 C   0  0  0  0  0  0  0  0  0  0  0  0
    0.1500    0.3833    0.0000 C   0  0  0  0  0  0  0  0  0  0  0  0
    0.5042    0.6000    0.0000 C   0  0  0  0  0  0  0  0  0  0  0  0
   -0.2125    1.0000    0.0000 C   0  0  0  0  0  0  0  0  0  0  0  0
   -0.9333    1.0000    0.0000 O   0  0  0  0  0  0  0  0  0  0  0  0
   -0.9333   -0.6375    0.0000 O   0  0  0  0  0  0  0  0  0  0  0  0
   -0.1958   -0.2000    0.0000 O   0  0  0  0  0  0  0  0  0  0  0  0
    0.5042    1.0000    0.0000 C   0  0  0  0  0  0  0  0  0  0  0  0
    0.1500   -0.0292    0.0000 Cl  0  0  0  0  0  0  0  0  0  0  0  0
    0.1500    1.2000    0.0000 C   0  0  0  0  0  0  0  0  0  0  0  0
    0.8875    1.2208    0.0000 Cl  0  0  0  0  0  0  0  0  0  0  0  0
   -1.6333    0.6000    0.0000 C   0  0  0  0  0  0  0  0  0  0  0  0
   -1.6333   -0.2167    0.0000 C   0  0  0  0  0  0  0  0  0  0  0  0
   -1.9958    0.3833    0.0000 C   0  0  0  0  0  0  0  0  0  0  0  0
   -1.9958   -0.0167    0.0000 C   0  0  0  0  0  0  0  0  0  0  0  0
  2  1  2  0  0  0  0
  3  1  1  0  0  0  0
  4  2  1  0  0  0  0
  5  3  1  0  0  0  0
  6  1  1  0  0  0  0
  7  5  2  0  0  0  0
  8  6  1  0  0  0  0
  9  8  2  0  0  0  0
 10  6  2  0  0  0  0
 11  3  2  0  0  0  0
 12  4  2  0  0  0  0
 13  2  1  0  0  0  0
 14 16  2  0  0  0  0
 15  8  1  0  0  0  0
 16 10  1  0  0  0  0
 17 14  1  0  0  0  0
 18  5  1  0  0  0  0
 19  7  1  0  0  0  0
 20 18  2  0  0  0  0
 21 20  1  0  0  0  0
  4  7  1  0  0  0  0
 14  9  1  0  0  0  0
 19 21  2  0  0  0  0
M  END
> <#>
854

> <PLATE>
LAT011

> <ROW>
F

> <COL>
8

> <COORD>
F08

> <LATID>
LAT011F08

> <Supplier>
Chembridge

> <Suplier_CAT#>
5650986

> <Name>
Novel

> <Sec_Name>
200_G05

> <Concentration_(mM)>
2.5

> <IC50_(µM)>
9.9

> <Yeast_Active?>
-

> <Pubchem_CID>
NULL

$$$$
