
  -ISIS-  08130814242D

 25 28  0  0  0  0  0  0  0  0999 V2000
   -3.0000    0.5458    0.0000 C   0  0  0  0  0  0  0  0  0  0  0  0
   -3.0000   -0.2375    0.0000 C   0  0  0  0  0  0  0  0  0  0  0  0
   -3.6625    0.9208    0.0000 C   0  0  0  0  0  0  0  0  0  0  0  0
   -3.6625   -0.6167    0.0000 C   0  0  0  0  0  0  0  0  0  0  0  0
   -2.3458    0.9208    0.0000 C   0  0  0  0  0  0  0  0  0  0  0  0
   -1.6833    0.5208    0.0000 C   0  0  0  0  0  0  0  0  0  0  0  0
   -2.3458   -0.6167    0.0000 C   0  0  0  0  0  0  0  0  0  0  0  0
   -4.3208   -0.2375    0.0000 C   0  0  0  0  0  0  0  0  0  0  0  0
   -4.3208    0.5208    0.0000 C   0  0  0  0  0  0  0  0  0  0  0  0
   -1.6833   -0.2375    0.0000 C   0  0  0  0  0  0  0  0  0  0  0  0
   -1.0208    0.9000    0.0000 N   0  0  3  0  0  0  0  0  0  0  0  0
   -3.6625   -1.4000    0.0000 O   0  0  0  0  0  0  0  0  0  0  0  0
   -3.6625    1.6833    0.0000 O   0  0  0  0  0  0  0  0  0  0  0  0
   -2.3458    1.6833    0.0000 N   0  0  0  0  0  0  0  0  0  0  0  0
   -2.3458   -1.4000    0.0000 O   0  0  0  0  0  0  0  0  0  0  0  0
   -4.9833    0.9000    0.0000 C   0  0  0  0  0  0  0  0  0  0  0  0
   -4.9833   -0.6167    0.0000 C   0  0  0  0  0  0  0  0  0  0  0  0
   -1.0208    1.6833    0.0000 C   0  0  0  0  0  0  0  0  0  0  0  0
   -0.4208    0.4208    0.0000 C   0  0  0  0  0  0  0  0  0  0  0  0
   -5.6458    0.5208    0.0000 C   0  0  0  0  0  0  0  0  0  0  0  0
   -5.6458   -0.2167    0.0000 C   0  0  0  0  0  0  0  0  0  0  0  0
   -0.4208    2.1625    0.0000 C   0  0  0  0  0  0  0  0  0  0  0  0
    0.3375    0.6000    0.0000 C   0  0  0  0  0  0  0  0  0  0  0  0
    0.3375    1.9833    0.0000 C   0  0  0  0  0  0  0  0  0  0  0  0
    0.6542    1.2833    0.0000 C   0  0  0  0  0  0  0  0  0  0  0  0
  2  1  2  0  0  0  0
  3  1  1  0  0  0  0
  4  2  1  0  0  0  0
  5  1  1  0  0  0  0
  6  5  2  0  0  0  0
  7  2  1  0  0  0  0
  8  9  2  0  0  0  0
  9  3  1  0  0  0  0
 10  6  1  0  0  0  0
 11  6  1  0  0  0  0
 12  4  2  0  0  0  0
 13  3  2  0  0  0  0
 14  5  1  0  0  0  0
 15  7  1  0  0  0  0
 16  9  1  0  0  0  0
 17  8  1  0  0  0  0
 18 11  1  0  0  0  0
 19 11  1  0  0  0  0
 20 16  2  0  0  0  0
 21 20  1  0  0  0  0
 22 18  1  0  0  0  0
 23 19  1  0  0  0  0
 24 22  1  0  0  0  0
 25 23  1  0  0  0  0
 10  7  2  0  0  0  0
  8  4  1  0  0  0  0
 17 21  2  0  0  0  0
 25 24  1  0  0  0  0
M  END
> <#>
1147

> <PLATE>
LAT015

> <ROW>
C

> <COL>
5

> <COORD>
C05

> <LATID>
LAT015C05

> <Supplier>
Chembridge

> <Suplier_CAT#>
5469064

> <Name>
Novel

> <Sec_Name>
132_D09

> <Concentration_(mM)>
2.5

> <IC50_(µM)>
inactive

> <Yeast_Active?>
-

> <Pubchem_CID>
NULL

$$$$
