
  -ISIS-  08130814242D

 36 41  0  0  0  0  0  0  0  0999 V2000
   -0.4958    0.2500    0.0000 C   0  0  0  0  0  0  0  0  0  0  0  0
    1.9792    0.2333    0.0000 C   0  0  0  0  0  0  0  0  0  0  0  0
   -0.4958   -0.2042    0.0000 C   0  0  0  0  0  0  0  0  0  0  0  0
    1.9792   -0.2292    0.0000 C   0  0  0  0  0  0  0  0  0  0  0  0
   -0.9125    0.4958    0.0000 C   0  0  0  0  0  0  0  0  0  0  0  0
    2.3792    0.4708    0.0000 C   0  0  0  0  0  0  0  0  0  0  0  0
    2.3792   -0.4792    0.0000 C   0  0  0  0  0  0  0  0  0  0  0  0
   -0.9125   -0.4500    0.0000 C   0  0  0  0  0  0  0  0  0  0  0  0
    0.3292    0.2500    0.0000 C   0  0  0  0  0  0  0  0  0  0  0  0
    1.1292    0.2333    0.0000 C   0  0  0  0  0  0  0  0  0  0  0  0
   -0.0958    0.4958    0.0000 C   0  0  0  0  0  0  0  0  0  0  0  0
    1.5542    0.4708    0.0000 C   0  0  0  0  0  0  0  0  0  0  0  0
   -0.0958   -0.4500    0.0000 C   0  0  0  0  0  0  0  0  0  0  0  0
    1.5542   -0.4792    0.0000 C   0  0  0  0  0  0  0  0  0  0  0  0
    2.8167   -0.2292    0.0000 C   0  0  0  0  0  0  0  0  0  0  0  0
    2.8167    0.2333    0.0000 C   0  0  0  0  0  0  0  0  0  0  0  0
   -1.3208   -0.2042    0.0000 C   0  0  0  0  0  0  0  0  0  0  0  0
   -1.3208    0.2500    0.0000 C   0  0  0  0  0  0  0  0  0  0  0  0
    1.1292   -0.2292    0.0000 C   0  0  0  0  0  0  0  0  0  0  0  0
    0.3292   -0.2042    0.0000 C   0  0  0  0  0  0  0  0  0  0  0  0
   -0.9125    1.0625    0.0000 O   0  0  0  0  0  0  0  0  0  0  0  0
   -0.8958   -0.9375    0.0000 O   0  0  0  0  0  0  0  0  0  0  0  0
    2.3792    1.0625    0.0000 O   0  0  0  0  0  0  0  0  0  0  0  0
    2.3792   -0.9500    0.0000 O   0  0  0  0  0  0  0  0  0  0  0  0
   -0.1000    1.0333    0.0000 O   0  0  0  0  0  0  0  0  0  0  0  0
    1.5542    1.1833    0.0000 O   0  0  0  0  0  0  0  0  0  0  0  0
    1.5500   -1.0042    0.0000 O   0  0  0  0  0  0  0  0  0  0  0  0
   -0.1000   -0.9875    0.0000 O   0  0  0  0  0  0  0  0  0  0  0  0
   -1.7333   -0.4500    0.0000 C   0  0  0  0  0  0  0  0  0  0  0  0
   -1.7333    0.4958    0.0000 C   0  0  0  0  0  0  0  0  0  0  0  0
    3.2292    0.4708    0.0000 C   0  0  0  0  0  0  0  0  0  0  0  0
    3.2292   -0.4792    0.0000 C   0  0  0  0  0  0  0  0  0  0  0  0
   -2.1500    0.2500    0.0000 C   0  0  0  0  0  0  0  0  0  0  0  0
    3.6542    0.2333    0.0000 C   0  0  0  0  0  0  0  0  0  0  0  0
    3.6542   -0.2292    0.0000 C   0  0  0  0  0  0  0  0  0  0  0  0
   -2.1500   -0.2042    0.0000 C   0  0  0  0  0  0  0  0  0  0  0  0
  2 12  1  0  0  0  0
  3  1  2  0  0  0  0
  4 14  1  0  0  0  0
  5  1  1  0  0  0  0
  6  2  1  0  0  0  0
  7  4  1  0  0  0  0
  8  3  1  0  0  0  0
  9 11  2  0  0  0  0
 10  9  1  0  0  0  0
 11  1  1  0  0  0  0
 12 10  2  0  0  0  0
 13  3  1  0  0  0  0
 14 19  2  0  0  0  0
 15  7  1  0  0  0  0
 16  6  1  0  0  0  0
 17 18  2  0  0  0  0
 18  5  1  0  0  0  0
 19 10  1  0  0  0  0
 20  9  1  0  0  0  0
 21  5  2  0  0  0  0
 22  8  2  0  0  0  0
 23  6  2  0  0  0  0
 24  7  2  0  0  0  0
 25 11  1  0  0  0  0
 26 12  1  0  0  0  0
 27 14  1  0  0  0  0
 28 13  1  0  0  0  0
 29 17  1  0  0  0  0
 30 18  1  0  0  0  0
 31 16  1  0  0  0  0
 32 15  1  0  0  0  0
 33 30  2  0  0  0  0
 34 31  2  0  0  0  0
 35 32  2  0  0  0  0
 36 33  1  0  0  0  0
 20 13  2  0  0  0  0
 17  8  1  0  0  0  0
 36 29  2  0  0  0  0
  2  4  2  0  0  0  0
 16 15  2  0  0  0  0
 34 35  1  0  0  0  0
M  END
> <#>
1125

> <PLATE>
LAT015

> <ROW>
E

> <COL>
2

> <COORD>
E02

> <LATID>
LAT015E02

> <Supplier>
Chembridge

> <Suplier_CAT#>
5212492

> <Name>
Novel

> <Concentration_(mM)>
2.5

> <IC50_(µM)>
inactive

> <Yeast_Active?>
-

> <Pubchem_CID>
NULL

$$$$
