
  -ISIS-  08130814242D

 33 37  0  0  0  0  0  0  0  0999 V2000
    2.6167   -0.5292    0.0000 C   0  0  0  0  0  0  0  0  0  0  0  0
    3.9292   -0.5292    0.0000 C   0  0  0  0  0  0  0  0  0  0  0  0
    3.2750   -0.9042    0.0000 C   0  0  3  0  0  0  0  0  0  0  0  0
    2.6167    0.2208    0.0000 C   0  0  0  0  0  0  0  0  0  0  0  0
    3.9292    0.2208    0.0000 C   0  0  0  0  0  0  0  0  0  0  0  0
    3.2750   -1.6542    0.0000 C   0  0  0  0  0  0  0  0  0  0  0  0
    3.2750    0.6000    0.0000 O   0  0  0  0  0  0  0  0  0  0  0  0
    2.9000   -2.8125    0.0000 C   0  0  0  0  0  0  0  0  0  0  0  0
    4.5792   -0.9042    0.0000 C   0  0  0  0  0  0  0  0  0  0  0  0
    1.9667   -0.9042    0.0000 C   0  0  0  0  0  0  0  0  0  0  0  0
    2.6667   -2.1000    0.0000 O   0  0  0  0  0  0  0  0  0  0  0  0
    2.4542   -3.4167    0.0000 C   0  0  0  0  0  0  0  0  0  0  0  0
    3.8792   -2.1000    0.0000 C   0  0  0  0  0  0  0  0  0  0  0  0
    3.6500   -2.8125    0.0000 C   0  0  0  0  0  0  0  0  0  0  0  0
    2.7625   -4.1042    0.0000 C   0  0  0  0  0  0  0  0  0  0  0  0
    1.9667    0.6000    0.0000 C   0  0  0  0  0  0  0  0  0  0  0  0
    4.5792    0.6000    0.0000 C   0  0  0  0  0  0  0  0  0  0  0  0
    5.2292    0.2208    0.0000 C   0  0  3  0  0  0  0  0  0  0  0  0
    1.3167    0.2208    0.0000 C   0  0  3  0  0  0  0  0  0  0  0  0
    1.3167   -0.5292    0.0000 C   0  0  0  0  0  0  0  0  0  0  0  0
    5.2292   -0.5292    0.0000 C   0  0  0  0  0  0  0  0  0  0  0  0
    2.3167   -4.7125    0.0000 C   0  0  0  0  0  0  0  0  0  0  0  0
    1.7125   -3.3417    0.0000 C   0  0  0  0  0  0  0  0  0  0  0  0
    1.9667   -1.6542    0.0000 O   0  0  0  0  0  0  0  0  0  0  0  0
    4.5792   -1.6542    0.0000 O   0  0  0  0  0  0  0  0  0  0  0  0
    1.5792   -4.6292    0.0000 C   0  0  0  0  0  0  0  0  0  0  0  0
    3.5042   -4.1792    0.0000 Cl  0  0  0  0  0  0  0  0  0  0  0  0
    1.2667   -3.9417    0.0000 C   0  0  0  0  0  0  0  0  0  0  0  0
    1.1375   -5.2375    0.0000 Cl  0  0  0  0  0  0  0  0  0  0  0  0
    4.8542    0.8708    0.0000 C   0  0  0  0  0  0  0  0  0  0  0  0
    0.6667    0.5958    0.0000 C   0  0  0  0  0  0  0  0  0  0  0  0
    0.6667   -0.1542    0.0000 C   0  0  0  0  0  0  0  0  0  0  0  0
    5.8792    0.5958    0.0000 C   0  0  0  0  0  0  0  0  0  0  0  0
  2  3  1  0  0  0  0
  3  1  1  0  0  0  0
  4  1  2  0  0  0  0
  5  7  1  0  0  0  0
  6  3  1  0  0  0  0
  7  4  1  0  0  0  0
  8 11  1  0  0  0  0
  9  2  1  0  0  0  0
 10  1  1  0  0  0  0
 11  6  1  0  0  0  0
 12  8  1  0  0  0  0
 13  6  2  0  0  0  0
 14 13  1  0  0  0  0
 15 12  2  0  0  0  0
 16  4  1  0  0  0  0
 17  5  1  0  0  0  0
 18 17  1  0  0  0  0
 19 20  1  0  0  0  0
 20 10  1  0  0  0  0
 21  9  1  0  0  0  0
 22 15  1  0  0  0  0
 23 12  1  0  0  0  0
 24 10  2  0  0  0  0
 25  9  2  0  0  0  0
 26 28  1  0  0  0  0
 27 15  1  0  0  0  0
 28 23  2  0  0  0  0
 29 26  1  0  0  0  0
 30 18  1  0  0  0  0
 31 19  1  0  0  0  0
 32 19  1  0  0  0  0
 33 18  1  0  0  0  0
 16 19  1  0  0  0  0
  2  5  2  0  0  0  0
  8 14  2  0  0  0  0
 21 18  1  0  0  0  0
 26 22  2  0  0  0  0
M  END
> <#>
1064

> <PLATE>
LAT014

> <ROW>
H

> <COL>
4

> <COORD>
H04

> <LATID>
LAT014H04

> <Supplier>
Chembridge

> <Suplier_CAT#>
5542758

> <Name>
Novel

> <Concentration_(mM)>
2.5

> <IC50_(µM)>
inactive

> <Yeast_Active?>
-

> <Pubchem_CID>
1040681

$$$$
