
  -ISIS-  08130814242D

 18 19  0  0  0  0  0  0  0  0999 V2000
   -1.2250   -7.4042    0.0000 C   0  0  0  0  0  0  0  0  0  0  0  0
   -0.5083   -7.8167    0.0000 C   0  0  0  0  0  0  0  0  0  0  0  0
   -1.2250   -6.5750    0.0000 C   0  0  0  0  0  0  0  0  0  0  0  0
   -1.9458   -6.1625    0.0000 C   0  0  0  0  0  0  0  0  0  0  0  0
   -1.9458   -7.8167    0.0000 C   0  0  0  0  0  0  0  0  0  0  0  0
    0.2042   -7.4000    0.0000 C   0  0  0  0  0  0  0  0  0  0  0  0
   -0.5083   -8.6417    0.0000 O   0  0  0  0  0  0  0  0  0  0  0  0
    0.9167   -7.8125    0.0000 C   0  0  0  0  0  0  0  0  0  0  0  0
   -2.6583   -6.5750    0.0000 C   0  0  0  0  0  0  0  0  0  0  0  0
   -0.5125   -6.1542    0.0000 O   0  0  0  0  0  0  0  0  0  0  0  0
    1.6292   -7.3917    0.0000 C   0  0  0  0  0  0  0  0  0  0  0  0
   -2.6583   -7.4042    0.0000 C   0  0  0  0  0  0  0  0  0  0  0  0
    2.3417   -7.8042    0.0000 C   0  0  0  0  0  0  0  0  0  0  0  0
    3.0542   -7.3917    0.0000 Cl  0  0  0  0  0  0  0  0  0  0  0  0
   -3.3708   -6.1667    0.0000 O   0  0  0  0  0  0  0  0  0  0  0  0
    1.6292   -9.0417    0.0000 C   0  0  0  0  0  0  0  0  0  0  0  0
    0.9167   -8.6375    0.0000 C   0  0  0  0  0  0  0  0  0  0  0  0
    2.3417   -8.6292    0.0000 C   0  0  0  0  0  0  0  0  0  0  0  0
  2  1  1  0  0  0  0
  3  1  1  0  0  0  0
  4  3  2  0  0  0  0
  5  1  2  0  0  0  0
  6  2  1  0  0  0  0
  7  2  2  0  0  0  0
  8  6  1  0  0  0  0
  9 12  2  0  0  0  0
 10  3  1  0  0  0  0
 11  8  1  0  0  0  0
 12  5  1  0  0  0  0
 13 11  2  0  0  0  0
 14 13  1  0  0  0  0
 15  9  1  0  0  0  0
 16 17  1  0  0  0  0
 17  8  2  0  0  0  0
 18 16  2  0  0  0  0
  4  9  1  0  0  0  0
 13 18  1  0  0  0  0
M  END
> <#>
1236

> <PLATE>
LAT016

> <ROW>
D

> <COL>
6

> <COORD>
D06

> <LATID>
LAT016D06

> <Supplier>
Chembridge

> <Suplier_CAT#>
6362821

> <Name>
Novel

> <Concentration_(mM)>
2.5

> <IC50_(µM)>
64

> <Yeast_Active?>
-

> <Pubchem_CID>
689037

$$$$
