
  -ISIS-  08130814242D

 17 18  0  0  0  0  0  0  0  0999 V2000
    5.0875   -8.3167    0.0000 C   0  0  0  0  0  0  0  0  0  0  0  0
    4.2792   -8.6917    0.0000 N   0  0  0  0  0  0  0  0  0  0  0  0
    4.9792   -7.4375    0.0000 N   0  0  0  0  0  0  0  0  0  0  0  0
    8.1625   -8.2500    0.0000 C   0  0  0  0  0  0  0  0  0  0  0  0
    4.1042   -7.2667    0.0000 N   0  0  0  0  0  0  0  0  0  0  0  0
    8.1417   -7.3667    0.0000 C   0  0  0  0  0  0  0  0  0  0  0  0
    3.6750   -8.0500    0.0000 C   0  0  0  0  0  0  0  0  0  0  0  0
    7.4042   -8.7125    0.0000 C   0  0  0  0  0  0  0  0  0  0  0  0
    8.9042   -6.9042    0.0000 C   0  0  0  0  0  0  0  0  0  0  0  0
    8.9417   -8.6792    0.0000 C   0  0  0  0  0  0  0  0  0  0  0  0
    5.8667   -8.7417    0.0000 S   0  0  0  0  0  0  0  0  0  0  0  0
    6.6250   -8.2792    0.0000 C   0  0  0  0  0  0  0  0  0  0  0  0
    7.4167   -9.6000    0.0000 O   0  0  0  0  0  0  0  0  0  0  0  0
    9.6792   -7.3375    0.0000 C   0  0  0  0  0  0  0  0  0  0  0  0
    7.3625   -6.9375    0.0000 O   0  0  0  0  0  0  0  0  0  0  0  0
    9.6917   -8.2250    0.0000 C   0  0  0  0  0  0  0  0  0  0  0  0
   10.4417   -6.8792    0.0000 O   0  0  0  0  0  0  0  0  0  0  0  0
  2  1  1  0  0  0  0
  3  1  2  0  0  0  0
  4  8  1  0  0  0  0
  5  3  1  0  0  0  0
  6  4  1  0  0  0  0
  7  2  1  0  0  0  0
  8 12  1  0  0  0  0
  9  6  2  0  0  0  0
 10  4  2  0  0  0  0
 11  1  1  0  0  0  0
 12 11  1  0  0  0  0
 13  8  2  0  0  0  0
 14 16  2  0  0  0  0
 15  6  1  0  0  0  0
 16 10  1  0  0  0  0
 17 14  1  0  0  0  0
  5  7  2  0  0  0  0
  9 14  1  0  0  0  0
M  END
> <#>
1215

> <PLATE>
LAT016

> <ROW>
G

> <COL>
3

> <COORD>
G03

> <LATID>
LAT016G03

> <Supplier>
Chembridge

> <Suplier_CAT#>
5931842

> <Name>
Novel

> <Concentration_(mM)>
2.5

> <IC50_(µM)>
>100

> <Yeast_Active?>
-

> <Pubchem_CID>
NULL

$$$$
