
  -ISIS-  08130814242D

 24 26  0  0  0  0  0  0  0  0999 V2000
    1.0375   -0.5542    0.0000 C   0  0  0  0  0  0  0  0  0  0  0  0
    0.8167   -1.1667    0.0000 C   0  0  0  0  0  0  0  0  0  0  0  0
    1.8667   -1.1792    0.0000 N   0  0  3  0  0  0  0  0  0  0  0  0
    1.3292   -1.5542    0.0000 N   0  0  3  0  0  0  0  0  0  0  0  0
    1.6875   -0.5542    0.0000 C   0  0  0  0  0  0  0  0  0  0  0  0
    0.6542   -0.0917    0.0000 N   0  0  0  0  0  0  0  0  0  0  0  0
   -0.2500    0.3958    0.0000 C   0  0  0  0  0  0  0  0  0  0  0  0
    0.0792   -0.0917    0.0000 C   0  0  0  0  0  0  0  0  0  0  0  0
    0.2667   -1.3667    0.0000 O   0  0  0  0  0  0  0  0  0  0  0  0
    1.3375   -2.1542    0.0000 C   0  0  0  0  0  0  0  0  0  0  0  0
    0.0542    0.9125    0.0000 C   0  0  0  0  0  0  0  0  0  0  0  0
   -0.8458    0.3958    0.0000 C   0  0  0  0  0  0  0  0  0  0  0  0
    2.5042   -1.3667    0.0000 C   0  0  0  0  0  0  0  0  0  0  0  0
   -0.2500    1.4333    0.0000 C   0  0  0  0  0  0  0  0  0  0  0  0
   -1.1625    0.9125    0.0000 C   0  0  0  0  0  0  0  0  0  0  0  0
    2.0542   -0.0667    0.0000 C   0  0  0  0  0  0  0  0  0  0  0  0
   -0.8500    1.4333    0.0000 C   0  0  0  0  0  0  0  0  0  0  0  0
   -1.7625    0.9125    0.0000 Cl  0  0  0  0  0  0  0  0  0  0  0  0
    0.6542    0.9125    0.0000 O   0  0  0  0  0  0  0  0  0  0  0  0
    1.8375   -2.4375    0.0000 C   0  0  0  0  0  0  0  0  0  0  0  0
    0.8292   -2.4542    0.0000 C   0  0  0  0  0  0  0  0  0  0  0  0
    1.8500   -3.0375    0.0000 C   0  0  0  0  0  0  0  0  0  0  0  0
    0.8375   -3.0542    0.0000 C   0  0  0  0  0  0  0  0  0  0  0  0
    1.3500   -3.3500    0.0000 C   0  0  0  0  0  0  0  0  0  0  0  0
  2  1  1  0  0  0  0
  3  5  1  0  0  0  0
  4  2  1  0  0  0  0
  5  1  2  0  0  0  0
  6  1  1  0  0  0  0
  7  8  1  0  0  0  0
  8  6  2  0  0  0  0
  9  2  2  0  0  0  0
 10  4  1  0  0  0  0
 11  7  1  0  0  0  0
 12  7  2  0  0  0  0
 13  3  1  0  0  0  0
 14 11  2  0  0  0  0
 15 12  1  0  0  0  0
 16  5  1  0  0  0  0
 17 15  2  0  0  0  0
 18 15  1  0  0  0  0
 19 11  1  0  0  0  0
 20 10  1  0  0  0  0
 21 10  2  0  0  0  0
 22 20  2  0  0  0  0
 23 21  1  0  0  0  0
 24 23  2  0  0  0  0
  4  3  1  0  0  0  0
 17 14  1  0  0  0  0
 22 24  1  0  0  0  0
M  END
> <#>
1054

> <PLATE>
LAT014

> <ROW>
F

> <COL>
3

> <COORD>
F03

> <LATID>
LAT014F03

> <Supplier>
Chembridge

> <Suplier_CAT#>
5115314

> <Name>
Novel

> <Concentration_(mM)>
2.5

> <IC50_(µM)>
>100

> <Yeast_Active?>
-

> <Pubchem_CID>
NULL

$$$$
