
  -ISIS-  08130814242D

 24 26  0  0  0  0  0  0  0  0999 V2000
   -3.1833   -0.4542    0.0000 C   0  0  0  0  0  0  0  0  0  0  0  0
   -2.4208   -0.9875    0.0000 C   0  0  0  0  0  0  0  0  0  0  0  0
   -2.6958   -1.8792    0.0000 N   0  0  3  0  0  0  0  0  0  0  0  0
   -3.6000   -1.8792    0.0000 N   0  0  0  0  0  0  0  0  0  0  0  0
   -3.9208   -1.0000    0.0000 C   0  0  0  0  0  0  0  0  0  0  0  0
   -3.1833    0.4833    0.0000 C   0  0  0  0  0  0  0  0  0  0  0  0
    1.0167   -1.8542    0.0000 N   0  3  0  0  0  0  0  0  0  0  0  0
   -2.3708    0.9500    0.0000 N   0  0  0  0  0  0  0  0  0  0  0  0
   -1.7500   -1.8792    0.0000 C   0  0  0  0  0  0  0  0  0  0  0  0
    0.1042   -1.8542    0.0000 C   0  0  0  0  0  0  0  0  0  0  0  0
   -1.5000   -0.6875    0.0000 O   0  0  0  0  0  0  0  0  0  0  0  0
    1.5542   -2.6167    0.0000 O   0  5  0  0  0  0  0  0  0  0  0  0
    1.5542   -1.1167    0.0000 O   0  0  0  0  0  0  0  0  0  0  0  0
   -1.2833   -1.0375    0.0000 C   0  0  0  0  0  0  0  0  0  0  0  0
   -1.2833   -2.6542    0.0000 C   0  0  0  0  0  0  0  0  0  0  0  0
   -0.3625   -1.0375    0.0000 C   0  0  0  0  0  0  0  0  0  0  0  0
   -0.3458   -2.6542    0.0000 C   0  0  0  0  0  0  0  0  0  0  0  0
   -1.5708    0.4958    0.0000 C   0  0  3  0  0  0  0  0  0  0  0  0
   -4.7958   -0.5000    0.0000 C   0  0  0  0  0  0  0  0  0  0  0  0
   -3.9833    0.9500    0.0000 C   0  0  0  0  0  0  0  0  0  0  0  0
   -0.7708    0.9500    0.0000 C   0  0  0  0  0  0  0  0  0  0  0  0
   -1.3625   -0.4292    0.0000 C   0  0  0  0  0  0  0  0  0  0  0  0
   -0.4333   -0.5042    0.0000 C   0  0  0  0  0  0  0  0  0  0  0  0
   -0.0625    0.3833    0.0000 C   0  0  0  0  0  0  0  0  0  0  0  0
  2  1  1  0  0  0  0
  3  2  1  0  0  0  0
  4  5  1  0  0  0  0
  5  1  2  0  0  0  0
  6  1  1  0  0  0  0
  7 10  1  0  0  0  0
  8  6  2  0  0  0  0
  9  3  1  0  0  0  0
 10 17  1  0  0  0  0
 11  2  2  0  0  0  0
 12  7  1  0  0  0  0
 13  7  2  0  0  0  0
 14  9  2  0  0  0  0
 15  9  1  0  0  0  0
 16 14  1  0  0  0  0
 17 15  2  0  0  0  0
 18  8  1  0  0  0  0
 19  5  1  0  0  0  0
 20  6  1  0  0  0  0
 21 18  1  0  0  0  0
 22 18  1  0  0  0  0
 23 22  1  0  0  0  0
 24 21  1  0  0  0  0
  3  4  1  0  0  0  0
 23 24  1  0  0  0  0
 16 10  2  0  0  0  0
M  CHG  2   7   1  12  -1
M  END
> <#>
1805

> <PLATE>
LAT023

> <ROW>
E

> <COL>
7

> <COORD>
E07

> <LATID>
LAT023E07

> <Supplier>
Chembridge

> <Suplier_CAT#>
5628830

> <Name>
Novel

> <Sec_Name>
191_A03

> <Concentration_(mM)>
2.5

> <IC50_(µM)>
>100

> <Yeast_Active?>
-

> <Pubchem_CID>
NULL

$$$$
