
  -ISIS-  08130814242D

 29 31  0  0  0  0  0  0  0  0999 V2000
    5.2375    3.8583    0.0000 S   0  0  3  0  0  0  0  0  0  0  0  0
    2.6125    3.2083    0.0000 C   0  0  0  0  0  0  0  0  0  0  0  0
    1.8625    3.2083    0.0000 C   0  0  0  0  0  0  0  0  0  0  0  0
    2.9875    2.5625    0.0000 N   0  0  0  0  0  0  0  0  0  0  0  0
    4.8625    3.2083    0.0000 C   0  0  0  0  0  0  0  0  0  0  0  0
    3.7375    2.5625    0.0000 C   0  0  0  0  0  0  0  0  0  0  0  0
    5.9625    3.6708    0.0000 N   0  0  0  0  0  0  0  0  0  0  0  0
    4.1125    3.2083    0.0000 C   0  0  0  0  0  0  0  0  0  0  0  0
    5.4917    4.5625    0.0000 O   0  0  0  0  0  0  0  0  0  0  0  0
    4.5542    4.1667    0.0000 O   0  0  0  0  0  0  0  0  0  0  0  0
    1.4875    3.8583    0.0000 C   0  0  0  0  0  0  0  0  0  0  0  0
    4.1125    1.9125    0.0000 C   0  0  0  0  0  0  0  0  0  0  0  0
    2.9875    3.8583    0.0000 O   0  0  0  0  0  0  0  0  0  0  0  0
    7.4125    3.2833    0.0000 N   0  0  0  0  0  0  0  0  0  0  0  0
    6.4917    4.1917    0.0000 C   0  0  0  0  0  0  0  0  0  0  0  0
    5.2375    2.5625    0.0000 C   0  0  0  0  0  0  0  0  0  0  0  0
    4.8625    1.9125    0.0000 C   0  0  0  0  0  0  0  0  0  0  0  0
    7.2167    4.0000    0.0000 C   0  0  0  0  0  0  0  0  0  0  0  0
    1.8625    4.5042    0.0000 F   0  0  0  0  0  0  0  0  0  0  0  0
    1.4875    2.5625    0.0000 C   0  0  0  0  0  0  0  0  0  0  0  0
    3.7375    1.2625    0.0000 O   0  0  0  0  0  0  0  0  0  0  0  0
    8.1375    3.0833    0.0000 C   0  0  0  0  0  0  0  0  0  0  0  0
    0.7375    3.8583    0.0000 C   0  0  0  0  0  0  0  0  0  0  0  0
    7.7500    4.5292    0.0000 C   0  0  0  0  0  0  0  0  0  0  0  0
    4.1125    0.6125    0.0000 C   0  0  0  0  0  0  0  0  0  0  0  0
    0.7375    2.5625    0.0000 C   0  0  0  0  0  0  0  0  0  0  0  0
    8.6667    3.6125    0.0000 C   0  0  0  0  0  0  0  0  0  0  0  0
    0.3625    3.2083    0.0000 C   0  0  0  0  0  0  0  0  0  0  0  0
    8.4667    4.3292    0.0000 C   0  0  0  0  0  0  0  0  0  0  0  0
  2  4  1  0  0  0  0
  3  2  1  0  0  0  0
  4  6  1  0  0  0  0
  5  1  1  0  0  0  0
  6  8  1  0  0  0  0
  7  1  1  0  0  0  0
  8  5  2  0  0  0  0
  9  1  2  0  0  0  0
 10  1  2  0  0  0  0
 11  3  1  0  0  0  0
 12 17  1  0  0  0  0
 13  2  2  0  0  0  0
 14 18  2  0  0  0  0
 15  7  1  0  0  0  0
 16  5  1  0  0  0  0
 17 16  2  0  0  0  0
 18 15  1  0  0  0  0
 19 11  1  0  0  0  0
 20  3  2  0  0  0  0
 21 12  1  0  0  0  0
 22 14  1  0  0  0  0
 23 11  2  0  0  0  0
 24 18  1  0  0  0  0
 25 21  1  0  0  0  0
 26 20  1  0  0  0  0
 27 29  1  0  0  0  0
 28 26  2  0  0  0  0
 29 24  2  0  0  0  0
  6 12  2  0  0  0  0
 22 27  2  0  0  0  0
 28 23  1  0  0  0  0
M  END
> <#>
1462

> <PLATE>
LAT019

> <ROW>
F

> <COL>
4

> <COORD>
F04

> <LATID>
LAT019F04

> <Supplier>
Chembridge

> <Suplier_CAT#>
9028139

> <Name>
Novel

> <Concentration_(mM)>
2.5

> <IC50_(µM)>
inactive

> <Yeast_Active?>
-

> <Pubchem_CID>
6460756

$$$$
