
  -ISIS-  08130814242D

 15 16  0  0  0  0  0  0  0  0999 V2000
    4.3583   -4.3875    0.0000 S   0  0  0  0  0  0  0  0  0  0  0  0
    5.0276   -3.9050    0.0000 C   0  0  0  0  0  0  0  0  0  0  0  0
    4.7708   -3.1167    0.0000 N   0  0  0  0  0  0  0  0  0  0  0  0
    3.9458   -3.1167    0.0000 C   0  0  0  0  0  0  0  0  0  0  0  0
    3.6890   -3.9050    0.0000 C   0  0  0  0  0  0  0  0  0  0  0  0
    5.7375   -4.3125    0.0000 N   0  0  0  0  0  0  0  0  0  0  0  0
    6.4500   -3.9000    0.0000 C   0  0  0  0  0  0  0  0  0  0  0  0
    7.1625   -4.3083    0.0000 N   0  0  0  0  0  0  0  0  0  0  0  0
    7.8750   -3.8958    0.0000 C   0  0  0  0  0  0  0  0  0  0  0  0
    8.5880   -4.3096    0.0000 C   0  0  0  0  0  0  0  0  0  0  0  0
    9.3000   -3.8978    0.0000 C   0  0  0  0  0  0  0  0  0  0  0  0
    9.2995   -3.0736    0.0000 C   0  0  0  0  0  0  0  0  0  0  0  0
    8.5810   -2.6630    0.0000 C   0  0  0  0  0  0  0  0  0  0  0  0
    7.8719   -3.0771    0.0000 C   0  0  0  0  0  0  0  0  0  0  0  0
    6.4482   -3.0750    0.0000 S   0  0  0  0  0  0  0  0  0  0  0  0
  2  3  2  0  0  0  0
  7  8  1  0  0  0  0
  1  2  1  0  0  0  0
  8  9  1  0  0  0  0
  3  4  1  0  0  0  0
  9 10  2  0  0  0  0
  5  1  1  0  0  0  0
 10 11  1  0  0  0  0
 11 12  2  0  0  0  0
  2  6  1  0  0  0  0
 12 13  1  0  0  0  0
  4  5  2  0  0  0  0
 13 14  2  0  0  0  0
 14  9  1  0  0  0  0
  6  7  1  0  0  0  0
  7 15  2  0  0  0  0
M  END
> <#>
265

> <PLATE>
LAT004

> <ROW>
A

> <COL>
5

> <COORD>
A05

> <LATID>
LAT004A05

> <Supplier>
Sigma

> <Suplier_CAT#>
P 4015

> <Name>
1-Phenyl-3-(2-Thiazolyl)-2-Thiourea

> <Concentration_(mM)>
2.5

> <IC50_(µM)>
20

> <Yeast_Active?>
-

> <Pubchem_CID>
719408

> <Description>
Dopamine beta-hydroxylase inhibitor

$$$$
