
  -ISIS-  08130814242D

 22 24  0  0  0  0  0  0  0  0999 V2000
   -3.2833   -0.6667    0.0000 C   0  0  0  0  0  0  0  0  0  0  0  0
   -3.8208    0.1125    0.0000 N   0  0  0  0  0  0  0  0  0  0  0  0
   -3.8208   -1.4500    0.0000 S   0  0  0  0  0  0  0  0  0  0  0  0
   -4.7708   -0.1875    0.0000 C   0  0  0  0  0  0  0  0  0  0  0  0
   -4.7708   -1.1542    0.0000 C   0  0  0  0  0  0  0  0  0  0  0  0
   -0.8625    0.1500    0.0000 C   0  0  0  0  0  0  0  0  0  0  0  0
    0.5792   -0.6792    0.0000 N   0  0  0  0  0  0  0  0  0  0  0  0
   -2.3208   -0.6667    0.0000 S   0  0  0  0  0  0  0  0  0  0  0  0
   -0.3833   -0.6792    0.0000 N   0  0  0  0  0  0  0  0  0  0  0  0
   -0.3708    0.9708    0.0000 O   0  0  0  0  0  0  0  0  0  0  0  0
   -1.8333    0.1625    0.0000 C   0  0  0  0  0  0  0  0  0  0  0  0
    1.0542    0.1500    0.0000 C   0  0  0  0  0  0  0  0  0  0  0  0
    2.0375    0.1500    0.0000 C   0  0  0  0  0  0  0  0  0  0  0  0
   -5.6000    0.3000    0.0000 C   0  0  0  0  0  0  0  0  0  0  0  0
   -5.6000   -1.6375    0.0000 C   0  0  0  0  0  0  0  0  0  0  0  0
    2.5042   -0.6792    0.0000 C   0  0  0  0  0  0  0  0  0  0  0  0
    2.5167    0.9833    0.0000 C   0  0  0  0  0  0  0  0  0  0  0  0
   -6.4292   -1.1542    0.0000 C   0  0  0  0  0  0  0  0  0  0  0  0
   -6.4292   -0.1875    0.0000 C   0  0  0  0  0  0  0  0  0  0  0  0
    3.4792    0.9833    0.0000 C   0  0  0  0  0  0  0  0  0  0  0  0
    3.4875   -0.6667    0.0000 C   0  0  0  0  0  0  0  0  0  0  0  0
    3.9542    0.1458    0.0000 C   0  0  0  0  0  0  0  0  0  0  0  0
  2  1  2  0  0  0  0
  3  1  1  0  0  0  0
  4  2  1  0  0  0  0
  5  3  1  0  0  0  0
  6 11  1  0  0  0  0
  7  9  1  0  0  0  0
  8  1  1  0  0  0  0
  9  6  1  0  0  0  0
 10  6  2  0  0  0  0
 11  8  1  0  0  0  0
 12  7  2  0  0  0  0
 13 12  1  0  0  0  0
 14  4  1  0  0  0  0
 15  5  1  0  0  0  0
 16 13  2  0  0  0  0
 17 13  1  0  0  0  0
 18 15  2  0  0  0  0
 19 14  2  0  0  0  0
 20 17  2  0  0  0  0
 21 16  1  0  0  0  0
 22 20  1  0  0  0  0
  5  4  2  0  0  0  0
 18 19  1  0  0  0  0
 21 22  2  0  0  0  0
M  END
> <#>
694

> <PLATE>
LAT009

> <ROW>
F

> <COL>
8

> <COORD>
F08

> <LATID>
LAT009F08

> <Supplier>
Chembridge

> <Suplier_CAT#>
5557192

> <Name>
Novel

> <Sec_Name>
165_D11

> <Concentration_(mM)>
2.5

> <IC50_(µM)>
26

> <Yeast_Active?>
-

> <Pubchem_CID>
52290

$$$$
