
  -ISIS-  08130814242D

 29 32  0  0  0  0  0  0  0  0999 V2000
   -0.5458   -1.1667    0.0000 C   0  0  0  0  0  0  0  0  0  0  0  0
   -1.9125   -0.3792    0.0000 C   0  0  0  0  0  0  0  0  0  0  0  0
    0.8500   -0.3542    0.0000 N   0  0  3  0  0  0  0  0  0  0  0  0
    3.6000    1.2708    0.0000 N   0  0  3  0  0  0  0  0  0  0  0  0
    4.9667    2.0958    0.0000 C   0  0  3  0  0  0  0  0  0  0  0  0
   -3.3000   -1.1667    0.0000 C   0  0  0  0  0  0  0  0  0  0  0  0
   -0.5208   -2.7667    0.0000 O   0  0  0  0  0  0  0  0  0  0  0  0
    0.8292    1.2458    0.0000 C   0  0  0  0  0  0  0  0  0  0  0  0
    2.2375   -1.1500    0.0000 C   0  0  0  0  0  0  0  0  0  0  0  0
    2.1917    2.0458    0.0000 C   0  0  0  0  0  0  0  0  0  0  0  0
    3.6167   -0.3292    0.0000 C   0  0  0  0  0  0  0  0  0  0  0  0
    4.9500    3.6833    0.0000 C   0  0  0  0  0  0  0  0  0  0  0  0
    6.3542    1.3208    0.0000 C   0  0  0  0  0  0  0  0  0  0  0  0
   -1.9125    1.2125    0.0000 C   0  0  0  0  0  0  0  0  0  0  0  0
   -3.3208   -2.7792    0.0000 O   0  0  0  0  0  0  0  0  0  0  0  0
   -4.6708   -0.3875    0.0000 C   0  0  0  0  0  0  0  0  0  0  0  0
    6.3167    4.4792    0.0000 C   0  0  0  0  0  0  0  0  0  0  0  0
    6.3792   -0.2792    0.0000 C   0  0  0  0  0  0  0  0  0  0  0  0
    7.7375    2.1458    0.0000 C   0  0  0  0  0  0  0  0  0  0  0  0
    3.5542    4.4667    0.0000 C   0  0  0  0  0  0  0  0  0  0  0  0
   -1.9500   -3.6000    0.0000 C   0  0  0  0  0  0  0  0  0  0  0  0
   -3.2958    2.0333    0.0000 C   0  0  0  0  0  0  0  0  0  0  0  0
   -4.6708    1.2000    0.0000 C   0  0  0  0  0  0  0  0  0  0  0  0
    7.7875   -1.0667    0.0000 C   0  0  0  0  0  0  0  0  0  0  0  0
    9.1500    1.3500    0.0000 C   0  0  0  0  0  0  0  0  0  0  0  0
    6.3042    6.0875    0.0000 C   0  0  0  0  0  0  0  0  0  0  0  0
    3.5500    6.0792    0.0000 C   0  0  0  0  0  0  0  0  0  0  0  0
    9.1667   -0.2542    0.0000 C   0  0  0  0  0  0  0  0  0  0  0  0
    4.9292    6.8875    0.0000 C   0  0  0  0  0  0  0  0  0  0  0  0
  2  1  1  0  0  0  0
  3  1  1  0  0  0  0
  4 11  1  0  0  0  0
  5  4  1  0  0  0  0
  6  2  1  0  0  0  0
  7  1  2  0  0  0  0
  8  3  1  0  0  0  0
  9  3  1  0  0  0  0
 10  8  1  0  0  0  0
 11  9  1  0  0  0  0
 12  5  1  0  0  0  0
 13  5  1  0  0  0  0
 14  2  2  0  0  0  0
 15  6  1  0  0  0  0
 16  6  2  0  0  0  0
 17 12  1  0  0  0  0
 18 13  1  0  0  0  0
 19 13  2  0  0  0  0
 20 12  2  0  0  0  0
 21 15  1  0  0  0  0
 22 14  1  0  0  0  0
 23 22  2  0  0  0  0
 24 18  2  0  0  0  0
 25 19  1  0  0  0  0
 26 17  2  0  0  0  0
 27 20  1  0  0  0  0
 28 25  2  0  0  0  0
 29 27  2  0  0  0  0
 10  4  1  0  0  0  0
 16 23  1  0  0  0  0
 24 28  1  0  0  0  0
 26 29  1  0  0  0  0
M  END
> <#>
1780

> <PLATE>
LAT023

> <ROW>
D

> <COL>
4

> <COORD>
D04

> <LATID>
LAT023D04

> <Supplier>
Chembridge

> <Suplier_CAT#>
5542384

> <Name>
Novel

> <Sec_Name>
159_D09

> <Concentration_(mM)>
2.5

> <IC50_(µM)>
12

> <Yeast_Active?>
-

> <Pubchem_CID>
1219310

$$$$
