
  -ISIS-  08130814242D

 18 19  0  0  0  0  0  0  0  0999 V2000
   -3.0635    0.7218    0.0000 C   0  0  0  0  0  0  0  0  0  0  0  0
   -3.0585   -0.1705    0.0000 C   0  0  2  0  0  0  0  0  0  0  0  0
   -3.8287   -0.6210    0.0000 C   0  0  2  0  0  0  0  0  0  0  0  0
   -3.8236   -1.5133    0.0000 O   0  0  0  0  0  0  0  0  0  0  0  0
   -3.0483   -1.9551    0.0000 C   0  0  0  0  0  0  0  0  0  0  0  0
   -2.2781   -1.5045    0.0000 C   0  0  0  0  0  0  0  0  0  0  0  0
   -2.2832   -0.6122    0.0000 C   0  0  0  0  0  0  0  0  0  0  0  0
   -1.5129   -0.1617    0.0000 C   0  0  0  0  0  0  0  0  0  0  0  0
   -0.7376   -0.6034    0.0000 C   0  0  0  0  0  0  0  0  0  0  0  0
    0.0326   -0.1528    0.0000 O   0  0  0  0  0  0  0  0  0  0  0  0
   -0.7325   -1.4957    0.0000 C   0  0  0  0  0  0  0  0  0  0  0  0
    0.0428   -1.9374    0.0000 C   0  0  0  0  0  0  0  0  0  0  0  0
    0.8130   -1.4869    0.0000 O   0  0  0  0  0  0  0  0  0  0  0  0
    0.0479   -2.8298    0.0000 O   0  0  0  0  0  0  0  0  0  0  0  0
   -1.5028   -1.9463    0.0000 C   0  0  0  0  0  0  0  0  0  0  0  0
   -1.4977   -2.8386    0.0000 O   0  0  0  0  0  0  0  0  0  0  0  0
   -1.5180    0.7307    0.0000 C   0  0  0  0  0  0  0  0  0  0  0  0
   -4.6040   -0.1793    0.0000 C   0  0  0  0  0  0  0  0  0  0  0  0
  2  1  1  1  0  0  0
  2  3  1  0  0  0  0
  3  4  1  0  0  0  0
  4  5  1  0  0  0  0
  5  6  2  0  0  0  0
  6  7  1  0  0  0  0
  2  7  1  0  0  0  0
  7  8  2  0  0  0  0
  8  9  1  0  0  0  0
  9 10  2  0  0  0  0
  9 11  1  0  0  0  0
 11 12  2  0  0  0  0
 12 13  1  0  0  0  0
 12 14  1  0  0  0  0
 11 15  1  0  0  0  0
  6 15  1  0  0  0  0
 15 16  2  0  0  0  0
  8 17  1  0  0  0  0
  3 18  1  6  0  0  0
M  END
> <#>
471

> <PLATE>
LAT006

> <ROW>
G

> <COL>
10

> <COORD>
G10

> <LATID>
LAT006G10

> <Supplier>
Sigma

> <Suplier_CAT#>
A-2006

> <Name>
Antimycin A

> <Concentration_(mM)>
2.5

> <IC50_(µM)>
0.53

> <Yeast_Active?>
-

> <Pubchem_CID>
14957

$$$$
