
  -ISIS-  08130814242D

 20 21  0  0  0  0  0  0  0  0999 V2000
   -0.1458    0.8500    0.0000 C   0  0  0  0  0  0  0  0  0  0  0  0
    1.6375    0.8458    0.0000 C   0  0  0  0  0  0  0  0  0  0  0  0
    0.7375    0.3333    0.0000 N   0  0  0  0  0  0  0  0  0  0  0  0
    1.6375    1.8708    0.0000 C   0  0  0  0  0  0  0  0  0  0  0  0
   -1.1000    0.3500    0.0000 N   0  0  0  0  0  0  0  0  0  0  0  0
   -0.1458    1.8958    0.0000 S   0  0  0  0  0  0  0  0  0  0  0  0
    2.5167    0.2958    0.0000 C   0  0  0  0  0  0  0  0  0  0  0  0
    3.4375    0.8000    0.0000 C   0  0  0  0  0  0  0  0  0  0  0  0
    2.5292    2.3958    0.0000 C   0  0  0  0  0  0  0  0  0  0  0  0
   -1.9708    0.9125    0.0000 C   0  0  0  0  0  0  0  0  0  0  0  0
    3.4375    1.8333    0.0000 C   0  0  0  0  0  0  0  0  0  0  0  0
    2.5000   -0.7542    0.0000 O   0  0  0  0  0  0  0  0  0  0  0  0
    2.5167    3.4458    0.0000 O   0  0  0  0  0  0  0  0  0  0  0  0
   -2.8958    0.4125    0.0000 C   0  0  0  0  0  0  0  0  0  0  0  0
   -1.9708    1.9458    0.0000 C   0  0  0  0  0  0  0  0  0  0  0  0
    3.4000   -1.3000    0.0000 C   0  0  0  0  0  0  0  0  0  0  0  0
    3.4292    3.9708    0.0000 C   0  0  0  0  0  0  0  0  0  0  0  0
   -2.9125    2.5208    0.0000 C   0  0  0  0  0  0  0  0  0  0  0  0
   -3.8500    0.9458    0.0000 C   0  0  0  0  0  0  0  0  0  0  0  0
   -3.8333    2.0208    0.0000 C   0  0  0  0  0  0  0  0  0  0  0  0
  2  3  1  0  0  0  0
  3  1  1  0  0  0  0
  4  2  1  0  0  0  0
  5  1  1  0  0  0  0
  6  1  2  0  0  0  0
  7  2  2  0  0  0  0
  8  7  1  0  0  0  0
  9  4  2  0  0  0  0
 10  5  1  0  0  0  0
 11  8  2  0  0  0  0
 12  7  1  0  0  0  0
 13  9  1  0  0  0  0
 14 10  2  0  0  0  0
 15 10  1  0  0  0  0
 16 12  1  0  0  0  0
 17 13  1  0  0  0  0
 18 15  2  0  0  0  0
 19 14  1  0  0  0  0
 20 18  1  0  0  0  0
 20 19  2  0  0  0  0
  9 11  1  0  0  0  0
M  END
> <#>
768

> <PLATE>
LAT010

> <ROW>
H

> <COL>
7

> <COORD>
H07

> <LATID>
LAT010H07

> <Supplier>
Chembridge

> <Suplier_CAT#>
5610265

> <Name>
Novel

> <Sec_Name>
184_F11

> <Concentration_(mM)>
2.5

> <IC50_(µM)>
77

> <Yeast_Active?>
-

> <Pubchem_CID>
730557

$$$$
