
  -ISIS-  08130814242D

 22 23  0  0  0  0  0  0  0  0999 V2000
    0.7000    0.2000    0.0000 C   0  0  0  0  0  0  0  0  0  0  0  0
   -1.4458   -0.2042    0.0000 C   0  0  0  0  0  0  0  0  0  0  0  0
   -0.0125   -0.2000    0.0000 N   0  0  0  0  0  0  0  0  0  0  0  0
   -0.7208   -0.6167    0.0000 N   0  0  0  0  0  0  0  0  0  0  0  0
    0.6875    1.0208    0.0000 C   0  0  0  0  0  0  0  0  0  0  0  0
   -2.8708   -0.2167    0.0000 O   0  0  0  0  0  0  0  0  0  0  0  0
   -1.4458    0.6000    0.0000 O   0  0  0  0  0  0  0  0  0  0  0  0
    1.4042   -0.2000    0.0000 O   0  0  0  0  0  0  0  0  0  0  0  0
   -3.5833   -0.6292    0.0000 C   0  0  0  0  0  0  0  0  0  0  0  0
   -2.1500   -0.6167    0.0000 C   0  0  0  0  0  0  0  0  0  0  0  0
   -3.5833   -1.4542    0.0000 C   0  0  0  0  0  0  0  0  0  0  0  0
   -0.0208    1.4208    0.0000 C   0  0  0  0  0  0  0  0  0  0  0  0
    1.4000    1.4458    0.0000 C   0  0  0  0  0  0  0  0  0  0  0  0
    0.6792    2.6708    0.0000 C   0  0  0  0  0  0  0  0  0  0  0  0
   -0.0333    2.2500    0.0000 C   0  0  0  0  0  0  0  0  0  0  0  0
    1.4000    2.2708    0.0000 C   0  0  0  0  0  0  0  0  0  0  0  0
    0.6667    3.5000    0.0000 Cl  0  0  0  0  0  0  0  0  0  0  0  0
   -4.3000   -0.2167    0.0000 C   0  0  0  0  0  0  0  0  0  0  0  0
   -2.8625   -1.8667    0.0000 C   0  0  0  0  0  0  0  0  0  0  0  0
   -4.3000   -1.8667    0.0000 C   0  0  0  0  0  0  0  0  0  0  0  0
   -5.0208   -0.6292    0.0000 C   0  0  0  0  0  0  0  0  0  0  0  0
   -5.0208   -1.4542    0.0000 C   0  0  0  0  0  0  0  0  0  0  0  0
  2  4  1  0  0  0  0
  3  1  1  0  0  0  0
  4  3  1  0  0  0  0
  5  1  1  0  0  0  0
  6 10  1  0  0  0  0
  7  2  2  0  0  0  0
  8  1  2  0  0  0  0
  9  6  1  0  0  0  0
 10  2  1  0  0  0  0
 11  9  1  0  0  0  0
 12  5  2  0  0  0  0
 13  5  1  0  0  0  0
 14 16  1  0  0  0  0
 15 12  1  0  0  0  0
 16 13  2  0  0  0  0
 17 14  1  0  0  0  0
 18  9  2  0  0  0  0
 19 11  1  0  0  0  0
 20 11  2  0  0  0  0
 21 18  1  0  0  0  0
 22 21  2  0  0  0  0
 14 15  2  0  0  0  0
 20 22  1  0  0  0  0
M  END
> <#>
800

> <PLATE>
LAT010

> <ROW>
H

> <COL>
11

> <COORD>
H11

> <LATID>
LAT010H11

> <Supplier>
Chembridge

> <Suplier_CAT#>
5617944

> <Name>
Novel

> <Sec_Name>
186_C05

> <Concentration_(mM)>
2.5

> <IC50_(µM)>
5.5

> <Yeast_Active?>
-

> <Pubchem_CID>
724144

$$$$
