
  -ISIS-  08130814242D

 23 24  0  0  0  0  0  0  0  0999 V2000
   -3.3000   -0.5292    0.0000 C   0  0  0  0  0  0  0  0  0  0  0  0
   -2.4333   -1.0375    0.0000 N   0  0  0  0  0  0  0  0  0  0  0  0
   -1.5708   -0.5292    0.0000 N   0  0  3  0  0  0  0  0  0  0  0  0
   -3.3000    0.4625    0.0000 C   0  0  0  0  0  0  0  0  0  0  0  0
   -4.2333   -1.0542    0.0000 C   0  0  3  0  0  0  0  0  0  0  0  0
   -1.5708    0.4625    0.0000 C   0  0  0  0  0  0  0  0  0  0  0  0
   -0.6458   -1.0792    0.0000 C   0  0  0  0  0  0  0  0  0  0  0  0
    0.2875   -0.5542    0.0000 C   0  0  0  0  0  0  0  0  0  0  0  0
    2.1292   -0.6167    0.0000 C   0  0  0  0  0  0  0  0  0  0  0  0
    1.2000   -1.1167    0.0000 N   0  0  0  0  0  0  0  0  0  0  0  0
    3.0375   -1.1875    0.0000 C   0  0  0  0  0  0  0  0  0  0  0  0
    2.1292    0.4458    0.0000 C   0  0  0  0  0  0  0  0  0  0  0  0
    0.2875    0.5208    0.0000 O   0  0  0  0  0  0  0  0  0  0  0  0
   -5.1708   -1.5792    0.0000 F   0  0  0  0  0  0  0  0  0  0  0  0
   -3.7000   -2.0042    0.0000 F   0  0  0  0  0  0  0  0  0  0  0  0
   -4.7708   -0.1292    0.0000 F   0  0  0  0  0  0  0  0  0  0  0  0
    3.1042    0.9500    0.0000 C   0  0  0  0  0  0  0  0  0  0  0  0
    4.0167   -0.6542    0.0000 C   0  0  0  0  0  0  0  0  0  0  0  0
    4.0167    0.3833    0.0000 C   0  0  0  0  0  0  0  0  0  0  0  0
    4.9792   -1.1542    0.0000 Cl  0  0  0  0  0  0  0  0  0  0  0  0
    1.2042    0.9625    0.0000 O   0  0  0  0  0  0  0  0  0  0  0  0
   -0.6458    0.9958    0.0000 C   0  0  0  0  0  0  0  0  0  0  0  0
    1.2042    2.0208    0.0000 C   0  0  0  0  0  0  0  0  0  0  0  0
  2  1  2  0  0  0  0
  3  2  1  0  0  0  0
  4  1  1  0  0  0  0
  5  1  1  0  0  0  0
  6  4  2  0  0  0  0
  7  3  1  0  0  0  0
  8  7  1  0  0  0  0
  9 10  1  0  0  0  0
 10  8  1  0  0  0  0
 11  9  2  0  0  0  0
 12  9  1  0  0  0  0
 13  8  2  0  0  0  0
 14  5  1  0  0  0  0
 15  5  1  0  0  0  0
 16  5  1  0  0  0  0
 17 12  2  0  0  0  0
 18 11  1  0  0  0  0
 19 17  1  0  0  0  0
 20 18  1  0  0  0  0
 21 12  1  0  0  0  0
 22  6  1  0  0  0  0
 23 21  1  0  0  0  0
  6  3  1  0  0  0  0
 18 19  2  0  0  0  0
M  END
> <#>
876

> <PLATE>
LAT011

> <ROW>
D

> <COL>
11

> <COORD>
D11

> <LATID>
LAT011D11

> <Supplier>
Chembridge

> <Suplier_CAT#>
5672002

> <Name>
Novel

> <Sec_Name>
211_G09

> <Concentration_(mM)>
2.5

> <IC50_(µM)>
inactive

> <Yeast_Active?>
-

> <Pubchem_CID>
711713

$$$$
