
  -ISIS-  08130814242D

 24 25  0  0  0  0  0  0  0  0999 V2000
    3.5625    3.9000    0.0000 S   0  0  3  0  0  0  0  0  0  0  0  0
    3.9375    3.2500    0.0000 C   0  0  0  0  0  0  0  0  0  0  0  0
    3.5625    2.6000    0.0000 C   0  0  0  0  0  0  0  0  0  0  0  0
    4.6875    3.2500    0.0000 C   0  0  0  0  0  0  0  0  0  0  0  0
    2.8375    3.7083    0.0000 N   0  0  0  0  0  0  0  0  0  0  0  0
    3.9375    1.9583    0.0000 C   0  0  0  0  0  0  0  0  0  0  0  0
    5.0625    2.6000    0.0000 C   0  0  0  0  0  0  0  0  0  0  0  0
    4.6875    1.9583    0.0000 C   0  0  0  0  0  0  0  0  0  0  0  0
    4.2417    4.2125    0.0000 O   0  0  0  0  0  0  0  0  0  0  0  0
    3.3042    4.5917    0.0000 O   0  0  0  0  0  0  0  0  0  0  0  0
    1.0542    4.5667    0.0000 N   0  0  0  0  0  0  0  0  0  0  0  0
    2.3042    4.2292    0.0000 C   0  0  0  0  0  0  0  0  0  0  0  0
    1.5792    4.0292    0.0000 C   0  0  0  0  0  0  0  0  0  0  0  0
    5.0625    3.9000    0.0000 O   0  0  0  0  0  0  0  0  0  0  0  0
    3.5625    1.3000    0.0000 O   0  0  0  0  0  0  0  0  0  0  0  0
    5.0625    1.3000    0.0000 C   0  0  0  0  0  0  0  0  0  0  0  0
    0.3292    4.3750    0.0000 C   0  0  0  0  0  0  0  0  0  0  0  0
    5.8125    3.9000    0.0000 C   0  0  0  0  0  0  0  0  0  0  0  0
    2.8125    1.3000    0.0000 C   0  0  0  0  0  0  0  0  0  0  0  0
    1.3875    3.3208    0.0000 C   0  0  0  0  0  0  0  0  0  0  0  0
    6.1875    4.5417    0.0000 C   0  0  0  0  0  0  0  0  0  0  0  0
    2.4375    0.6500    0.0000 C   0  0  0  0  0  0  0  0  0  0  0  0
    0.1292    3.6583    0.0000 C   0  0  0  0  0  0  0  0  0  0  0  0
    0.6625    3.1250    0.0000 C   0  0  0  0  0  0  0  0  0  0  0  0
  2  1  1  0  0  0  0
  3  2  1  0  0  0  0
  4  2  2  0  0  0  0
  5  1  1  0  0  0  0
  6  3  2  0  0  0  0
  7  4  1  0  0  0  0
  8  7  2  0  0  0  0
  9  1  2  0  0  0  0
 10  1  2  0  0  0  0
 11 13  2  0  0  0  0
 12  5  1  0  0  0  0
 13 12  1  0  0  0  0
 14  4  1  0  0  0  0
 15  6  1  0  0  0  0
 16  8  1  0  0  0  0
 17 11  1  0  0  0  0
 18 14  1  0  0  0  0
 19 15  1  0  0  0  0
 20 13  1  0  0  0  0
 21 18  1  0  0  0  0
 22 19  1  0  0  0  0
 23 24  1  0  0  0  0
 24 20  2  0  0  0  0
  6  8  1  0  0  0  0
 17 23  2  0  0  0  0
M  END
> <#>
1956

> <PLATE>
LAT025

> <ROW>
D

> <COL>
6

> <COORD>
D06

> <LATID>
LAT025D06

> <Supplier>
Chembridge

> <Suplier_CAT#>
9028263

> <Name>
Novel

> <Concentration_(mM)>
2.5

> <IC50_(µM)>
>100

> <Yeast_Active?>
-

> <Pubchem_CID>
6460794

$$$$
