
  -ISIS-  08130814242D

 22 23  0  0  0  0  0  0  0  0999 V2000
    0.1042    0.2333    0.0000 C   0  0  0  0  0  0  0  0  0  0  0  0
   -1.1958    0.2333    0.0000 O   0  0  0  0  0  0  0  0  0  0  0  0
   -1.8333   -0.1292    0.0000 C   0  0  0  0  0  0  0  0  0  0  0  0
    1.3875    0.2625    0.0000 N   0  0  0  0  0  0  0  0  0  0  0  0
   -0.5333   -0.1292    0.0000 C   0  0  3  0  0  0  0  0  0  0  0  0
    0.7500   -0.1292    0.0000 N   0  0  0  0  0  0  0  0  0  0  0  0
    0.1042    0.9833    0.0000 O   0  0  0  0  0  0  0  0  0  0  0  0
   -2.4708    0.2333    0.0000 C   0  0  0  0  0  0  0  0  0  0  0  0
    2.0500   -0.1292    0.0000 C   0  0  0  0  0  0  0  0  0  0  0  0
    2.7000    0.2333    0.0000 C   0  0  0  0  0  0  0  0  0  0  0  0
    4.0167    0.9708    0.0000 C   0  0  0  0  0  0  0  0  0  0  0  0
   -2.4708    0.9833    0.0000 Br  0  0  0  0  0  0  0  0  0  0  0  0
    4.6875    1.3458    0.0000 Cl  0  0  0  0  0  0  0  0  0  0  0  0
    3.3667    1.3625    0.0000 C   0  0  0  0  0  0  0  0  0  0  0  0
    4.0000    0.2208    0.0000 C   0  0  0  0  0  0  0  0  0  0  0  0
    3.3500   -0.1500    0.0000 C   0  0  0  0  0  0  0  0  0  0  0  0
    2.7000    0.9833    0.0000 C   0  0  0  0  0  0  0  0  0  0  0  0
   -1.8333   -0.8792    0.0000 C   0  0  0  0  0  0  0  0  0  0  0  0
   -0.5333   -0.8792    0.0000 C   0  0  0  0  0  0  0  0  0  0  0  0
   -3.1125   -0.1292    0.0000 C   0  0  0  0  0  0  0  0  0  0  0  0
   -2.4708   -1.2375    0.0000 C   0  0  0  0  0  0  0  0  0  0  0  0
   -3.1125   -0.8792    0.0000 C   0  0  0  0  0  0  0  0  0  0  0  0
  2  5  1  0  0  0  0
  3  2  1  0  0  0  0
  4  6  1  0  0  0  0
  5  1  1  0  0  0  0
  6  1  1  0  0  0  0
  7  1  2  0  0  0  0
  8  3  2  0  0  0  0
  9  4  2  0  0  0  0
 10  9  1  0  0  0  0
 11 14  1  0  0  0  0
 12  8  1  0  0  0  0
 13 11  1  0  0  0  0
 14 17  2  0  0  0  0
 15 16  1  0  0  0  0
 16 10  2  0  0  0  0
 17 10  1  0  0  0  0
 18  3  1  0  0  0  0
 19  5  1  0  0  0  0
 20  8  1  0  0  0  0
 21 18  2  0  0  0  0
 22 21  1  0  0  0  0
 15 11  2  0  0  0  0
 22 20  2  0  0  0  0
M  END
> <#>
667

> <PLATE>
LAT009

> <ROW>
C

> <COL>
5

> <COORD>
C05

> <LATID>
LAT009C05

> <Supplier>
Chembridge

> <Suplier_CAT#>
5530311

> <Name>
Novel

> <Sec_Name>
152_B02

> <Concentration_(mM)>
2.5

> <IC50_(µM)>
9

> <Yeast_Active?>
-

> <Pubchem_CID>
1368058

$$$$
