
  -ISIS-  08130814242D

 25 26  0  0  0  0  0  0  0  0999 V2000
   -3.3833    0.4458    0.0000 C   0  0  0  0  0  0  0  0  0  0  0  0
   -3.8458    1.1833    0.0000 C   0  0  0  0  0  0  0  0  0  0  0  0
   -0.8708   -0.4500    0.0000 C   0  0  0  0  0  0  0  0  0  0  0  0
    0.5375   -1.2500    0.0000 N   0  0  0  0  0  0  0  0  0  0  0  0
   -4.8125    1.1833    0.0000 C   0  0  0  0  0  0  0  0  0  0  0  0
   -2.4208    0.4458    0.0000 O   0  0  0  0  0  0  0  0  0  0  0  0
   -0.3833   -1.2500    0.0000 N   0  0  0  0  0  0  0  0  0  0  0  0
   -3.7958   -0.3375    0.0000 C   0  0  0  0  0  0  0  0  0  0  0  0
   -0.3333    0.3125    0.0000 O   0  0  0  0  0  0  0  0  0  0  0  0
   -1.8833   -0.4500    0.0000 C   0  0  0  0  0  0  0  0  0  0  0  0
    1.0167   -2.0375    0.0000 C   0  0  0  0  0  0  0  0  0  0  0  0
   -3.3333    1.9583    0.0000 C   0  0  3  0  0  0  0  0  0  0  0  0
   -5.2708    0.4458    0.0000 C   0  0  0  0  0  0  0  0  0  0  0  0
   -4.7708   -0.3375    0.0000 C   0  0  0  0  0  0  0  0  0  0  0  0
    2.4167   -1.2375    0.0000 C   0  0  0  0  0  0  0  0  0  0  0  0
    1.9542   -2.0375    0.0000 C   0  0  0  0  0  0  0  0  0  0  0  0
    3.3542   -1.2375    0.0000 C   0  0  0  0  0  0  0  0  0  0  0  0
    3.8167   -0.4292    0.0000 O   0  0  0  0  0  0  0  0  0  0  0  0
    3.3667   -2.8292    0.0000 C   0  0  0  0  0  0  0  0  0  0  0  0
    2.4667   -2.8167    0.0000 C   0  0  0  0  0  0  0  0  0  0  0  0
    3.8500   -2.0292    0.0000 C   0  0  0  0  0  0  0  0  0  0  0  0
   -3.7958    2.7708    0.0000 C   0  0  0  0  0  0  0  0  0  0  0  0
   -2.3833    1.9583    0.0000 C   0  0  0  0  0  0  0  0  0  0  0  0
   -5.2708   -1.1167    0.0000 C   0  0  0  0  0  0  0  0  0  0  0  0
    4.7500   -0.4292    0.0000 C   0  0  0  0  0  0  0  0  0  0  0  0
  2  1  2  0  0  0  0
  3 10  1  0  0  0  0
  4  7  1  0  0  0  0
  5  2  1  0  0  0  0
  6  1  1  0  0  0  0
  7  3  1  0  0  0  0
  8  1  1  0  0  0  0
  9  3  2  0  0  0  0
 10  6  1  0  0  0  0
 11  4  2  0  0  0  0
 12  2  1  0  0  0  0
 13 14  1  0  0  0  0
 14  8  2  0  0  0  0
 15 16  2  0  0  0  0
 16 11  1  0  0  0  0
 17 15  1  0  0  0  0
 18 17  1  0  0  0  0
 19 20  2  0  0  0  0
 20 16  1  0  0  0  0
 21 19  1  0  0  0  0
 22 12  1  0  0  0  0
 23 12  1  0  0  0  0
 24 14  1  0  0  0  0
 25 18  1  0  0  0  0
 13  5  2  0  0  0  0
 21 17  2  0  0  0  0
M  END
> <#>
1881

> <PLATE>
LAT024

> <ROW>
A

> <COL>
7

> <COORD>
A07

> <LATID>
LAT024A07

> <Supplier>
Chembridge

> <Suplier_CAT#>
5204265

> <Name>
S001 A03

> <Concentration_(mM)>
2.5

> <IC50_(µM)>
>100

> <Yeast_Active?>
-

> <Pubchem_CID>
757843

$$$$
