
  -ISIS-  08130814242D

 22 23  0  0  0  0  0  0  0  0999 V2000
    0.9542    1.0458    0.0000 C   0  0  0  0  0  0  0  0  0  0  0  0
    0.2167   -0.7792    0.0000 C   0  0  0  0  0  0  0  0  0  0  0  0
    0.4542    0.4833    0.0000 N   0  0  0  0  0  0  0  0  0  0  0  0
   -0.9833   -1.1875    0.0000 N   0  0  0  0  0  0  0  0  0  0  0  0
    1.7167    0.8833    0.0000 C   0  0  0  0  0  0  0  0  0  0  0  0
   -0.5000   -0.6375    0.0000 N   0  0  0  0  0  0  0  0  0  0  0  0
    0.7000    1.7458    0.0000 O   0  0  0  0  0  0  0  0  0  0  0  0
    0.4542   -1.4792    0.0000 O   0  0  0  0  0  0  0  0  0  0  0  0
   -2.4708   -2.8500    0.0000 N   0  0  0  0  0  0  0  0  0  0  0  0
    0.7167   -0.2167    0.0000 C   0  0  0  0  0  0  0  0  0  0  0  0
   -1.7125   -1.0500    0.0000 C   0  0  0  0  0  0  0  0  0  0  0  0
    1.9375    0.1833    0.0000 C   0  0  0  0  0  0  0  0  0  0  0  0
    2.2167    1.4208    0.0000 C   0  0  0  0  0  0  0  0  0  0  0  0
   -2.2125   -1.5875    0.0000 C   0  0  0  0  0  0  0  0  0  0  0  0
    3.1542    0.5625    0.0000 C   0  0  0  0  0  0  0  0  0  0  0  0
    2.6542    0.0208    0.0000 C   0  0  0  0  0  0  0  0  0  0  0  0
    2.9375    1.2625    0.0000 C   0  0  0  0  0  0  0  0  0  0  0  0
    3.9000    0.4208    0.0000 Cl  0  0  0  0  0  0  0  0  0  0  0  0
   -1.9958   -2.2875    0.0000 C   0  0  0  0  0  0  0  0  0  0  0  0
   -3.2000   -2.7000    0.0000 C   0  0  0  0  0  0  0  0  0  0  0  0
   -2.9333   -1.4375    0.0000 C   0  0  0  0  0  0  0  0  0  0  0  0
   -3.4333   -1.9875    0.0000 C   0  0  0  0  0  0  0  0  0  0  0  0
  2 10  1  0  0  0  0
  3  1  1  0  0  0  0
  4  6  1  0  0  0  0
  5  1  1  0  0  0  0
  6  2  1  0  0  0  0
  7  1  2  0  0  0  0
  8  2  2  0  0  0  0
  9 19  2  0  0  0  0
 10  3  1  0  0  0  0
 11  4  2  0  0  0  0
 12  5  2  0  0  0  0
 13  5  1  0  0  0  0
 14 11  1  0  0  0  0
 15 17  1  0  0  0  0
 16 12  1  0  0  0  0
 17 13  2  0  0  0  0
 18 15  1  0  0  0  0
 19 14  1  0  0  0  0
 20 22  2  0  0  0  0
 21 14  2  0  0  0  0
 22 21  1  0  0  0  0
 16 15  2  0  0  0  0
  9 20  1  0  0  0  0
M  END
> <#>
1662

> <PLATE>
LAT021

> <ROW>
F

> <COL>
9

> <COORD>
F09

> <LATID>
LAT021F09

> <Supplier>
Chembridge

> <Suplier_CAT#>
5467738

> <Name>
Novel

> <Concentration_(mM)>
2.5

> <IC50_(µM)>
inactive

> <Yeast_Active?>
-

> <Pubchem_CID>
1894699

$$$$
