
  -ISIS-  08130814242D

 20 21  0  0  0  0  0  0  0  0999 V2000
    0.7667    2.9958    0.0000 N   0  0  3  0  0  0  0  0  0  0  0  0
    1.4500    3.3833    0.0000 C   0  0  0  0  0  0  0  0  0  0  0  0
    0.7667    2.2083    0.0000 C   0  0  0  0  0  0  0  0  0  0  0  0
    0.0875    3.3958    0.0000 C   0  0  0  0  0  0  0  0  0  0  0  0
    1.4500    4.1500    0.0000 O   0  0  0  0  0  0  0  0  0  0  0  0
   -1.2708    1.7958    0.0000 N   0  0  0  0  0  0  0  0  0  0  0  0
   -1.9708    1.3958    0.0000 C   0  0  0  0  0  0  0  0  0  0  0  0
   -2.6500    1.7708    0.0000 C   0  0  0  0  0  0  0  0  0  0  0  0
    0.0875    1.8125    0.0000 C   0  0  0  0  0  0  0  0  0  0  0  0
   -0.5958    2.9958    0.0000 C   0  0  0  0  0  0  0  0  0  0  0  0
   -0.5958    2.2125    0.0000 C   0  0  3  0  0  0  0  0  0  0  0  0
    2.1292    3.0000    0.0000 O   0  0  0  0  0  0  0  0  0  0  0  0
   -3.3458    1.3958    0.0000 C   0  0  0  0  0  0  0  0  0  0  0  0
   -4.0208    1.7833    0.0000 S   0  0  0  0  0  0  0  0  0  0  0  0
   -2.6500    0.2000    0.0000 C   0  0  0  0  0  0  0  0  0  0  0  0
   -1.9708    0.6000    0.0000 C   0  0  0  0  0  0  0  0  0  0  0  0
   -3.3458    0.6000    0.0000 C   0  0  0  0  0  0  0  0  0  0  0  0
   -4.0000    2.5500    0.0000 C   0  0  0  0  0  0  0  0  0  0  0  0
    2.1292    2.2208    0.0000 C   0  0  0  0  0  0  0  0  0  0  0  0
    2.8167    1.8333    0.0000 C   0  0  0  0  0  0  0  0  0  0  0  0
  2  1  1  0  0  0  0
  3  1  1  0  0  0  0
  4  1  1  0  0  0  0
  5  2  2  0  0  0  0
  6 11  1  0  0  0  0
  7  6  1  0  0  0  0
  8  7  2  0  0  0  0
  9  3  1  0  0  0  0
 10  4  1  0  0  0  0
 11 10  1  0  0  0  0
 12  2  1  0  0  0  0
 13  8  1  0  0  0  0
 14 13  1  0  0  0  0
 15 16  2  0  0  0  0
 16  7  1  0  0  0  0
 17 15  1  0  0  0  0
 18 14  1  0  0  0  0
 19 12  1  0  0  0  0
 20 19  1  0  0  0  0
  9 11  1  0  0  0  0
 17 13  2  0  0  0  0
M  END
> <#>
1911

> <PLATE>
LAT024

> <ROW>
G

> <COL>
10

> <COORD>
G10

> <LATID>
LAT024G10

> <Supplier>
Chembridge

> <Suplier_CAT#>
5475278

> <Name>
Novel

> <Sec_Name>
137_H08

> <Concentration_(mM)>
2.5

> <IC50_(µM)>
92

> <Yeast_Active?>
-

> <Pubchem_CID>
868360

$$$$
