
  -ISIS-  08130814242D

  7  7  0  0  0  0  0  0  0  0999 V2000
    5.9763   -2.6872    0.0000 N   0  0  0  0  0  0  0  0  0  0  0  0
    6.6073   -3.3182    0.0000 C   0  0  3  0  0  0  0  0  0  0  0  0
    5.9763   -3.9491    0.0000 C   0  0  0  0  0  0  0  0  0  0  0  0
    5.3453   -3.3182    0.0000 C   0  0  0  0  0  0  0  0  0  0  0  0
    7.4996   -3.3182    0.0000 C   0  0  0  0  0  0  0  0  0  0  0  0
    7.9458   -2.5454    0.0000 O   0  0  0  0  0  0  0  0  0  0  0  0
    7.9458   -4.0909    0.0000 O   0  0  0  0  0  0  0  0  0  0  0  0
  1  2  1  0  0  0  0
  2  3  1  0  0  0  0
  3  4  1  0  0  0  0
  1  4  1  0  0  0  0
  5  6  2  0  0  0  0
  5  7  1  0  0  0  0
  2  5  1  0  0  0  0
M  END
> <#>
497

> <PLATE>
LAT007

> <ROW>
A

> <COL>
4

> <COORD>
A04

> <LATID>
LAT007A04

> <Supplier>
Sigma

> <Suplier_CAT#>
A-0760

> <Name>
L-Azetidine-2-Carboxylic Acid

> <Concentration_(mM)>
2.5

> <IC50_(µM)>
inactive

> <Yeast_Active?>
-

> <Pubchem_CID>
16486

$$$$
