
  -ISIS-  08130814242D

 22 24  0  0  0  0  0  0  0  0999 V2000
    0.1375    0.4000    0.0000 C   0  0  0  0  0  0  0  0  0  0  0  0
   -1.1167    1.1417    0.0000 C   0  0  0  0  0  0  0  0  0  0  0  0
    1.3583    1.1167    0.0000 C   0  0  0  0  0  0  0  0  0  0  0  0
    0.1292   -1.0458    0.0000 C   0  0  0  0  0  0  0  0  0  0  0  0
   -2.3625    0.4125    0.0000 C   0  0  0  0  0  0  0  0  0  0  0  0
   -1.1292   -1.7583    0.0000 O   0  0  0  0  0  0  0  0  0  0  0  0
   -2.3542   -1.0000    0.0000 C   0  0  0  0  0  0  0  0  0  0  0  0
    2.5792    0.4042    0.0000 C   0  0  0  0  0  0  0  0  0  0  0  0
   -3.5875    1.1208    0.0000 C   0  0  0  0  0  0  0  0  0  0  0  0
   -1.1167    2.3417    0.0000 O   0  0  0  0  0  0  0  0  0  0  0  0
    1.3583    2.3417    0.0000 O   0  0  0  0  0  0  0  0  0  0  0  0
   -3.5833   -1.7000    0.0000 C   0  0  0  0  0  0  0  0  0  0  0  0
    3.7958    1.1000    0.0000 C   0  0  0  0  0  0  0  0  0  0  0  0
   -4.8000    0.4208    0.0000 C   0  0  0  0  0  0  0  0  0  0  0  0
   -4.8000   -1.0000    0.0000 C   0  0  0  0  0  0  0  0  0  0  0  0
    1.3417   -1.7417    0.0000 C   0  0  0  0  0  0  0  0  0  0  0  0
    3.7833    2.5083    0.0000 Cl  0  0  0  0  0  0  0  0  0  0  0  0
    2.5708   -1.0000    0.0000 C   0  0  0  0  0  0  0  0  0  0  0  0
    5.0083    0.4000    0.0000 C   0  0  0  0  0  0  0  0  0  0  0  0
   -6.0208   -1.6917    0.0000 C   0  0  0  0  0  0  0  0  0  0  0  0
    3.7792   -1.7083    0.0000 C   0  0  0  0  0  0  0  0  0  0  0  0
    5.0042   -1.0167    0.0000 C   0  0  0  0  0  0  0  0  0  0  0  0
  2  1  1  0  0  0  0
  3  1  1  0  0  0  0
  4  1  2  0  0  0  0
  5  2  1  0  0  0  0
  6  4  1  0  0  0  0
  7  6  1  0  0  0  0
  8  3  1  0  0  0  0
  9  5  1  0  0  0  0
 10  2  2  0  0  0  0
 11  3  2  0  0  0  0
 12  7  1  0  0  0  0
 13  8  1  0  0  0  0
 14  9  2  0  0  0  0
 15 12  2  0  0  0  0
 16  4  1  0  0  0  0
 17 13  1  0  0  0  0
 18  8  2  0  0  0  0
 19 13  2  0  0  0  0
 20 15  1  0  0  0  0
 21 18  1  0  0  0  0
 22 21  2  0  0  0  0
  7  5  2  0  0  0  0
 15 14  1  0  0  0  0
 22 19  1  0  0  0  0
M  END
> <#>
1906

> <PLATE>
LAT024

> <ROW>
B

> <COL>
10

> <COORD>
B10

> <LATID>
LAT024B10

> <Supplier>
Chembridge

> <Suplier_CAT#>
8064076

> <Name>
Novel

> <Concentration_(mM)>
2.5

> <IC50_(µM)>
inactive

> <Yeast_Active?>
-

> <Pubchem_CID>
776042

$$$$
