
  -ISIS-  08130814242D

 16 16  0  0  0  0  0  0  0  0999 V2000
    1.2000    0.2833    0.0000 N   0  0  0  0  0  0  0  0  0  0  0  0
    2.3000    0.9000    0.0000 C   0  0  0  0  0  0  0  0  0  0  0  0
    1.5542    0.9000    0.0000 N   0  0  0  0  0  0  0  0  0  0  0  0
   -1.0208   -1.0167    0.0000 N   0  0  0  0  0  0  0  0  0  0  0  0
    2.6542    1.5458    0.0000 O   0  0  0  0  0  0  0  0  0  0  0  0
    0.4542    0.2833    0.0000 C   0  0  0  0  0  0  0  0  0  0  0  0
    0.0792   -0.3792    0.0000 C   0  0  0  0  0  0  0  0  0  0  0  0
   -0.6625   -0.3792    0.0000 C   0  0  0  0  0  0  0  0  0  0  0  0
    2.6667    0.2708    0.0000 C   0  0  0  0  0  0  0  0  0  0  0  0
   -0.6625   -1.6375    0.0000 C   0  0  0  0  0  0  0  0  0  0  0  0
    0.4375   -1.0167    0.0000 C   0  0  0  0  0  0  0  0  0  0  0  0
    2.3042   -0.3667    0.0000 C   0  0  0  0  0  0  0  0  0  0  0  0
    2.3042   -1.6542    0.0000 C   0  0  0  0  0  0  0  0  0  0  0  0
    2.6667   -1.0042    0.0000 C   0  0  0  0  0  0  0  0  0  0  0  0
    0.0792   -1.6375    0.0000 C   0  0  0  0  0  0  0  0  0  0  0  0
    2.6667   -2.3000    0.0000 C   0  0  0  0  0  0  0  0  0  0  0  0
  2  3  1  0  0  0  0
  3  1  1  0  0  0  0
  4  8  1  0  0  0  0
  5  2  2  0  0  0  0
  6  1  2  0  0  0  0
  7  6  1  0  0  0  0
  8  7  2  0  0  0  0
  9  2  1  0  0  0  0
 10 15  1  0  0  0  0
 11  7  1  0  0  0  0
 12  9  1  0  0  0  0
 13 14  1  0  0  0  0
 14 12  1  0  0  0  0
 15 11  2  0  0  0  0
 16 13  1  0  0  0  0
  4 10  2  0  0  0  0
M  END
> <#>
1605

> <PLATE>
LAT021

> <ROW>
E

> <COL>
2

> <COORD>
E02

> <LATID>
LAT021E02

> <Supplier>
Chembridge

> <Suplier_CAT#>
5333447

> <Name>
Novel

> <Concentration_(mM)>
2.5

> <IC50_(µM)>
>100

> <Yeast_Active?>
-

> <Pubchem_CID>
2165354

$$$$
