
  -ISIS-  08130814242D

 24 26  0  0  0  0  0  0  0  0999 V2000
   -2.6833    1.0458    0.0000 C   0  0  0  0  0  0  0  0  0  0  0  0
   -2.6833    0.5458    0.0000 C   0  0  0  0  0  0  0  0  0  0  0  0
   -3.1000    1.3000    0.0000 C   0  0  0  0  0  0  0  0  0  0  0  0
   -3.1000    0.3000    0.0000 N   0  0  3  0  0  0  0  0  0  0  0  0
   -3.5208    1.0458    0.0000 C   0  0  0  0  0  0  0  0  0  0  0  0
   -3.5208    0.5458    0.0000 C   0  0  0  0  0  0  0  0  0  0  0  0
   -2.2208    1.3000    0.0000 C   0  0  0  0  0  0  0  0  0  0  0  0
   -1.8000    1.0625    0.0000 N   0  0  0  0  0  0  0  0  0  0  0  0
   -2.2458    0.2833    0.0000 O   0  0  0  0  0  0  0  0  0  0  0  0
   -2.2208    1.8000    0.0000 O   0  0  0  0  0  0  0  0  0  0  0  0
   -3.0833    1.8000    0.0000 O   0  0  0  0  0  0  0  0  0  0  0  0
   -3.0833   -0.2167    0.0000 C   0  0  0  0  0  0  0  0  0  0  0  0
   -1.3833    1.3000    0.0000 C   0  0  0  0  0  0  0  0  0  0  0  0
   -0.0833    0.5625    0.0000 C   0  0  0  0  0  0  0  0  0  0  0  0
   -0.9458    1.0625    0.0000 C   0  0  0  0  0  0  0  0  0  0  0  0
   -3.9625    1.3000    0.0000 C   0  0  0  0  0  0  0  0  0  0  0  0
    0.3542    0.3000    0.0000 Cl  0  0  0  0  0  0  0  0  0  0  0  0
   -3.9625    0.3000    0.0000 C   0  0  0  0  0  0  0  0  0  0  0  0
   -0.1000    1.0625    0.0000 C   0  0  0  0  0  0  0  0  0  0  0  0
   -0.5000    0.3208    0.0000 C   0  0  0  0  0  0  0  0  0  0  0  0
   -0.5208    1.3208    0.0000 C   0  0  0  0  0  0  0  0  0  0  0  0
   -0.9458    0.5625    0.0000 C   0  0  0  0  0  0  0  0  0  0  0  0
   -4.3833    1.0458    0.0000 C   0  0  0  0  0  0  0  0  0  0  0  0
   -4.3833    0.5458    0.0000 C   0  0  0  0  0  0  0  0  0  0  0  0
  2  1  1  0  0  0  0
  3  1  2  0  0  0  0
  4  2  1  0  0  0  0
  5  3  1  0  0  0  0
  6  5  2  0  0  0  0
  7  1  1  0  0  0  0
  8  7  1  0  0  0  0
  9  2  2  0  0  0  0
 10  7  2  0  0  0  0
 11  3  1  0  0  0  0
 12  4  1  0  0  0  0
 13  8  1  0  0  0  0
 14 20  1  0  0  0  0
 15 13  1  0  0  0  0
 16  5  1  0  0  0  0
 17 14  1  0  0  0  0
 18  6  1  0  0  0  0
 19 21  1  0  0  0  0
 20 22  2  0  0  0  0
 21 15  2  0  0  0  0
 22 15  1  0  0  0  0
 23 16  2  0  0  0  0
 24 23  1  0  0  0  0
  6  4  1  0  0  0  0
 18 24  2  0  0  0  0
 14 19  2  0  0  0  0
M  END
> <#>
2014

> <PLATE>
LAT026

> <ROW>
F

> <COL>
3

> <COORD>
F03

> <LATID>
LAT026F03

> <Supplier>
Chembridge

> <Suplier_CAT#>
5662521

> <Sec_Name>
207_E03

> <Concentration_(mM)>
2.5

> <IC50_(µM)>
inactive

> <Yeast_Active?>
-

> <Pubchem_CID>
NULL

$$$$
