
  -ISIS-  08130814242D

 18 19  0  0  0  0  0  0  0  0999 V2000
    4.4375   -0.8292    0.0000 N   0  3  0  0  0  0  0  0  0  0  0  0
    3.9667   -0.0292    0.0000 C   0  0  0  0  0  0  0  0  0  0  0  0
    2.5542    0.7833    0.0000 C   0  0  0  0  0  0  0  0  0  0  0  0
    3.0167   -0.0292    0.0000 C   0  0  0  0  0  0  0  0  0  0  0  0
    4.0000   -1.6500    0.0000 O   0  5  0  0  0  0  0  0  0  0  0  0
    5.3542   -0.8167    0.0000 O   0  0  0  0  0  0  0  0  0  0  0  0
    1.1667   -0.0167    0.0000 N   0  0  0  0  0  0  0  0  0  0  0  0
    3.0292    1.5958    0.0000 C   0  0  0  0  0  0  0  0  0  0  0  0
    1.6292    0.7833    0.0000 C   0  0  0  0  0  0  0  0  0  0  0  0
    4.4375    0.7833    0.0000 C   0  0  0  0  0  0  0  0  0  0  0  0
   -1.1208    0.8500    0.0000 O   0  0  0  0  0  0  0  0  0  0  0  0
    3.9667    1.5958    0.0000 C   0  0  0  0  0  0  0  0  0  0  0  0
    2.5542    2.4000    0.0000 O   0  0  0  0  0  0  0  0  0  0  0  0
   -0.2125    0.7708    0.0000 C   0  0  3  0  0  0  0  0  0  0  0  0
    0.2500   -0.0167    0.0000 C   0  0  0  0  0  0  0  0  0  0  0  0
   -1.3125    1.7833    0.0000 C   0  0  0  0  0  0  0  0  0  0  0  0
    0.1667    1.5958    0.0000 C   0  0  0  0  0  0  0  0  0  0  0  0
   -0.5125    2.2333    0.0000 C   0  0  0  0  0  0  0  0  0  0  0  0
  2  1  1  0  0  0  0
  3  4  2  0  0  0  0
  4  2  1  0  0  0  0
  5  1  1  0  0  0  0
  6  1  2  0  0  0  0
  7  9  2  0  0  0  0
  8 12  2  0  0  0  0
  9  3  1  0  0  0  0
 10  2  2  0  0  0  0
 11 14  1  0  0  0  0
 12 10  1  0  0  0  0
 13  8  1  0  0  0  0
 14 15  1  0  0  0  0
 15  7  1  0  0  0  0
 16 11  1  0  0  0  0
 17 14  1  0  0  0  0
 18 17  1  0  0  0  0
  8  3  1  0  0  0  0
 16 18  1  0  0  0  0
M  CHG  2   1   1   5  -1
M  END
> <#>
1764

> <PLATE>
LAT023

> <ROW>
D

> <COL>
2

> <COORD>
D02

> <LATID>
LAT023D02

> <Supplier>
Chembridge

> <Suplier_CAT#>
5509997

> <Name>
Novel

> <Sec_Name>
145_H11

> <Concentration_(mM)>
2.5

> <IC50_(µM)>
38

> <Yeast_Active?>
-

> <Pubchem_CID>
2247065

$$$$
