
  -ISIS-  08130814242D

 24 27  0  0  0  0  0  0  0  0999 V2000
    6.2417   -4.5917    0.0000 C   0  0  0  0  0  0  0  0  0  0  0  0
    6.2417   -5.3417    0.0000 C   0  0  0  0  0  0  0  0  0  0  0  0
    6.8917   -4.2167    0.0000 C   0  0  3  0  0  0  0  0  0  0  0  0
    7.5375   -4.5917    0.0000 C   0  0  0  0  0  0  0  0  0  0  0  0
    7.5375   -5.3417    0.0000 C   0  0  0  0  0  0  0  0  0  0  0  0
    6.8792   -5.7167    0.0000 O   0  0  0  0  0  0  0  0  0  0  0  0
    6.8917   -3.4667    0.0000 C   0  0  0  0  0  0  0  0  0  0  0  0
    4.9417   -4.5917    0.0000 C   0  0  0  0  0  0  0  0  0  0  0  0
    4.9417   -5.3417    0.0000 N   0  0  0  0  0  0  0  0  0  0  0  0
    5.5917   -5.7167    0.0000 N   0  0  0  0  0  0  0  0  0  0  0  0
    6.3750   -2.8250    0.0000 O   0  0  0  0  0  0  0  0  0  0  0  0
    8.1917   -4.2250    0.0000 C   0  0  0  0  0  0  0  0  0  0  0  0
    7.6667   -3.1750    0.0000 C   0  0  0  0  0  0  0  0  0  0  0  0
    8.8375   -4.6000    0.0000 N   0  0  0  0  0  0  0  0  0  0  0  0
    6.8292   -2.1375    0.0000 C   0  0  0  0  0  0  0  0  0  0  0  0
    4.1167   -4.5917    0.0000 C   0  0  0  0  0  0  0  0  0  0  0  0
    7.6250   -2.3542    0.0000 C   0  0  0  0  0  0  0  0  0  0  0  0
    8.1792   -5.7250    0.0000 N   0  0  0  0  0  0  0  0  0  0  0  0
    2.8917   -3.8792    0.0000 N   0  0  0  0  0  0  0  0  0  0  0  0
    3.7042   -3.8792    0.0000 C   0  0  0  0  0  0  0  0  0  0  0  0
    3.7042   -5.2917    0.0000 C   0  0  0  0  0  0  0  0  0  0  0  0
    6.8250   -1.3125    0.0000 C   0  0  0  0  0  0  0  0  0  0  0  0
    2.4875   -4.5792    0.0000 C   0  0  0  0  0  0  0  0  0  0  0  0
    2.8917   -5.2917    0.0000 C   0  0  0  0  0  0  0  0  0  0  0  0
  2  1  2  0  0  0  0
  3  1  1  0  0  0  0
  4  3  1  0  0  0  0
  5  4  2  0  0  0  0
  6  2  1  0  0  0  0
  7  3  1  0  0  0  0
  8  1  1  0  0  0  0
  9  8  2  0  0  0  0
 10  2  1  0  0  0  0
 11  7  1  0  0  0  0
 12  4  1  0  0  0  0
 13  7  2  0  0  0  0
 14 12  3  0  0  0  0
 15 11  1  0  0  0  0
 16  8  1  0  0  0  0
 17 13  1  0  0  0  0
 18  5  1  0  0  0  0
 19 20  2  0  0  0  0
 20 16  1  0  0  0  0
 21 16  2  0  0  0  0
 22 15  1  0  0  0  0
 23 24  2  0  0  0  0
 24 21  1  0  0  0  0
  9 10  1  0  0  0  0
  6  5  1  0  0  0  0
 17 15  2  0  0  0  0
 19 23  1  0  0  0  0
M  END
> <#>
1685

> <PLATE>
LAT022

> <ROW>
E

> <COL>
2

> <COORD>
E02

> <LATID>
LAT022E02

> <Supplier>
Chembridge

> <Suplier_CAT#>
7750314

> <Name>
Novel

> <Concentration_(mM)>
2.5

> <IC50_(µM)>
inactive

> <Yeast_Active?>
-

> <Pubchem_CID>
NULL

$$$$
