
  -ISIS-  08130814242D

 21 22  0  0  0  0  0  0  0  0999 V2000
    2.4417    4.1917    0.0000 C   0  0  0  0  0  0  0  0  0  0  0  0
    3.6542    4.9042    0.0000 C   0  0  0  0  0  0  0  0  0  0  0  0
    4.8792    4.2125    0.0000 C   0  0  0  0  0  0  0  0  0  0  0  0
    6.0875    4.9167    0.0000 C   0  0  0  0  0  0  0  0  0  0  0  0
    1.2375    4.8917    0.0000 C   0  0  0  0  0  0  0  0  0  0  0  0
    7.3042    4.2167    0.0000 C   0  0  0  0  0  0  0  0  0  0  0  0
    2.4417    2.7958    0.0000 C   0  0  0  0  0  0  0  0  0  0  0  0
    3.6542    6.3042    0.0000 O   0  0  0  0  0  0  0  0  0  0  0  0
    6.0792    6.3167    0.0000 O   0  0  0  0  0  0  0  0  0  0  0  0
    0.0292    4.2000    0.0000 C   0  0  0  0  0  0  0  0  0  0  0  0
    8.5125    4.9042    0.0000 C   0  0  0  0  0  0  0  0  0  0  0  0
    7.2917    2.8333    0.0000 C   0  0  0  0  0  0  0  0  0  0  0  0
    1.2292    2.1000    0.0000 C   0  0  0  0  0  0  0  0  0  0  0  0
    9.7167    2.8125    0.0000 C   0  0  0  0  0  0  0  0  0  0  0  0
    0.0167    2.8083    0.0000 C   0  0  0  0  0  0  0  0  0  0  0  0
    8.5000    2.1208    0.0000 C   0  0  0  0  0  0  0  0  0  0  0  0
    9.7167    4.2125    0.0000 C   0  0  0  0  0  0  0  0  0  0  0  0
    1.2292    6.2917    0.0000 O   0  0  0  0  0  0  0  0  0  0  0  0
   10.9250    2.1125    0.0000 F   0  0  0  0  0  0  0  0  0  0  0  0
    1.2167    0.6958    0.0000 O   0  0  0  0  0  0  0  0  0  0  0  0
    0.0000    0.0000    0.0000 C   0  0  0  0  0  0  0  0  0  0  0  0
  2  1  1  0  0  0  0
  3  2  1  0  0  0  0
  4  3  1  0  0  0  0
  5  1  2  0  0  0  0
  6  4  1  0  0  0  0
  7  1  1  0  0  0  0
  8  2  2  0  0  0  0
  9  4  2  0  0  0  0
 10  5  1  0  0  0  0
 11  6  1  0  0  0  0
 12  6  2  0  0  0  0
 13  7  2  0  0  0  0
 14 16  2  0  0  0  0
 15 13  1  0  0  0  0
 16 12  1  0  0  0  0
 17 11  2  0  0  0  0
 18  5  1  0  0  0  0
 19 14  1  0  0  0  0
 20 13  1  0  0  0  0
 21 20  1  0  0  0  0
 15 10  2  0  0  0  0
 14 17  1  0  0  0  0
M  END
> <#>
1238

> <PLATE>
LAT016

> <ROW>
F

> <COL>
6

> <COORD>
F06

> <LATID>
LAT016F06

> <Supplier>
Chembridge

> <Suplier_CAT#>
5967556

> <Name>
Novel

> <Concentration_(mM)>
2.5

> <IC50_(µM)>
>100

> <Yeast_Active?>
-

> <Pubchem_CID>
768764

$$$$
