
  -ISIS-  08130814242D

 27 29  0  0  0  0  0  0  0  0999 V2000
    2.4667    3.7208    0.0000 S   0  0  3  0  0  0  0  0  0  0  0  0
    3.2167    3.7208    0.0000 N   0  0  0  0  0  0  0  0  0  0  0  0
    4.3417    4.3542    0.0000 C   0  0  0  0  0  0  0  0  0  0  0  0
    4.7167    3.7208    0.0000 C   0  0  0  0  0  0  0  0  0  0  0  0
    3.5917    4.3542    0.0000 C   0  0  0  0  0  0  0  0  0  0  0  0
    2.2750    2.9958    0.0000 C   0  0  0  0  0  0  0  0  0  0  0  0
    2.5292    4.4542    0.0000 O   0  0  0  0  0  0  0  0  0  0  0  0
    1.7292    3.8458    0.0000 O   0  0  0  0  0  0  0  0  0  0  0  0
    5.4667    3.7208    0.0000 N   0  0  0  0  0  0  0  0  0  0  0  0
    6.9667    2.4208    0.0000 N   0  0  0  0  0  0  0  0  0  0  0  0
    4.3417    3.0708    0.0000 O   0  0  0  0  0  0  0  0  0  0  0  0
    1.5500    2.7958    0.0000 C   0  0  0  0  0  0  0  0  0  0  0  0
    2.8042    2.4583    0.0000 C   0  0  0  0  0  0  0  0  0  0  0  0
    5.8417    3.0708    0.0000 C   0  0  0  0  0  0  0  0  0  0  0  0
    6.5917    3.0708    0.0000 C   0  0  0  0  0  0  0  0  0  0  0  0
    2.6042    1.7375    0.0000 C   0  0  0  0  0  0  0  0  0  0  0  0
    1.3542    2.0708    0.0000 C   0  0  0  0  0  0  0  0  0  0  0  0
    1.8792    1.5458    0.0000 C   0  0  0  0  0  0  0  0  0  0  0  0
    4.7167    5.0042    0.0000 C   0  0  0  0  0  0  0  0  0  0  0  0
    3.2167    5.0042    0.0000 C   0  0  0  0  0  0  0  0  0  0  0  0
    7.7167    2.4208    0.0000 C   0  0  0  0  0  0  0  0  0  0  0  0
    6.9667    3.7208    0.0000 C   0  0  0  0  0  0  0  0  0  0  0  0
    1.6917    0.8208    0.0000 C   0  0  0  0  0  0  0  0  0  0  0  0
    4.3417    5.6542    0.0000 C   0  0  0  0  0  0  0  0  0  0  0  0
    3.5917    5.6542    0.0000 C   0  0  0  0  0  0  0  0  0  0  0  0
    8.0917    3.0708    0.0000 C   0  0  0  0  0  0  0  0  0  0  0  0
    7.7167    3.7208    0.0000 C   0  0  0  0  0  0  0  0  0  0  0  0
  2  1  1  0  0  0  0
  3  5  1  0  0  0  0
  4  3  1  0  0  0  0
  5  2  1  0  0  0  0
  6  1  1  0  0  0  0
  7  1  2  0  0  0  0
  8  1  2  0  0  0  0
  9  4  1  0  0  0  0
 10 15  1  0  0  0  0
 11  4  2  0  0  0  0
 12  6  2  0  0  0  0
 13  6  1  0  0  0  0
 14  9  1  0  0  0  0
 15 14  1  0  0  0  0
 16 13  2  0  0  0  0
 17 12  1  0  0  0  0
 18 16  1  0  0  0  0
 19  3  2  0  0  0  0
 20  5  2  0  0  0  0
 21 10  2  0  0  0  0
 22 15  2  0  0  0  0
 23 18  1  0  0  0  0
 24 25  2  0  0  0  0
 25 20  1  0  0  0  0
 26 27  2  0  0  0  0
 27 22  1  0  0  0  0
 17 18  2  0  0  0  0
 24 19  1  0  0  0  0
 21 26  1  0  0  0  0
M  END
> <#>
1577

> <PLATE>
LAT020

> <ROW>
A

> <COL>
9

> <COORD>
A09

> <LATID>
LAT020A09

> <Supplier>
Chembridge

> <Suplier_CAT#>
7955336

> <Name>
Novel

> <Concentration_(mM)>
2.5

> <IC50_(µM)>
>100

> <Yeast_Active?>
-

> <Pubchem_CID>
2973231

$$$$
