
  -ISIS-  08130814242D

 23 25  0  0  0  0  0  0  0  0999 V2000
    3.2667   -0.8000    0.0000 C   0  0  0  0  0  0  0  0  0  0  0  0
    3.9167   -0.4167    0.0000 N   0  0  0  0  0  0  0  0  0  0  0  0
    0.6667   -1.5542    0.0000 C   0  0  0  0  0  0  0  0  0  0  0  0
    5.8667   -0.8000    0.0000 N   0  0  0  0  0  0  0  0  0  0  0  0
    3.2667   -1.5500    0.0000 O   0  0  0  0  0  0  0  0  0  0  0  0
    0.0167   -1.9292    0.0000 C   0  0  0  0  0  0  0  0  0  0  0  0
    0.6667   -0.8042    0.0000 C   0  0  0  0  0  0  0  0  0  0  0  0
    1.3167   -1.9292    0.0000 C   0  0  0  0  0  0  0  0  0  0  0  0
    2.6167   -0.4292    0.0000 C   0  0  0  0  0  0  0  0  0  0  0  0
    5.2167   -0.4167    0.0000 C   0  0  0  0  0  0  0  0  0  0  0  0
    1.9667   -0.8000    0.0000 C   0  0  0  0  0  0  0  0  0  0  0  0
    4.5667   -0.8000    0.0000 C   0  0  0  0  0  0  0  0  0  0  0  0
    1.9667   -1.5500    0.0000 C   0  0  0  0  0  0  0  0  0  0  0  0
    1.3167   -0.4292    0.0000 C   0  0  0  0  0  0  0  0  0  0  0  0
    6.5167   -0.4167    0.0000 C   0  0  0  0  0  0  0  0  0  0  0  0
    0.0167   -2.6792    0.0000 C   0  0  0  0  0  0  0  0  0  0  0  0
   -0.6208   -1.5542    0.0000 C   0  0  0  0  0  0  0  0  0  0  0  0
    5.2167    0.3208    0.0000 C   0  0  0  0  0  0  0  0  0  0  0  0
    6.5042    0.3208    0.0000 C   0  0  0  0  0  0  0  0  0  0  0  0
   -1.2708   -1.9375    0.0000 C   0  0  0  0  0  0  0  0  0  0  0  0
   -0.6125   -3.0542    0.0000 C   0  0  0  0  0  0  0  0  0  0  0  0
    5.8542    0.7000    0.0000 C   0  0  0  0  0  0  0  0  0  0  0  0
   -1.2625   -2.6875    0.0000 C   0  0  0  0  0  0  0  0  0  0  0  0
  2  1  1  0  0  0  0
  3  7  1  0  0  0  0
  4 10  1  0  0  0  0
  5  1  2  0  0  0  0
  6  3  1  0  0  0  0
  7 14  2  0  0  0  0
  8 13  1  0  0  0  0
  9  1  1  0  0  0  0
 10 12  1  0  0  0  0
 11  9  1  0  0  0  0
 12  2  1  0  0  0  0
 13 11  2  0  0  0  0
 14 11  1  0  0  0  0
 15  4  2  0  0  0  0
 16  6  2  0  0  0  0
 17  6  1  0  0  0  0
 18 10  2  0  0  0  0
 19 22  2  0  0  0  0
 20 17  2  0  0  0  0
 21 16  1  0  0  0  0
 22 18  1  0  0  0  0
 23 20  1  0  0  0  0
  3  8  2  0  0  0  0
 15 19  1  0  0  0  0
 23 21  2  0  0  0  0
M  END
> <#>
1410

> <PLATE>
LAT018

> <ROW>
B

> <COL>
8

> <COORD>
B08

> <LATID>
LAT018B08

> <Supplier>
Chembridge

> <Suplier_CAT#>
5689408

> <Name>
Novel

> <Concentration_(mM)>
2.5

> <IC50_(µM)>
>100

> <Yeast_Active?>
-

> <Pubchem_CID>
2259191

$$$$
