
  -ISIS-  08130814242D

 17 18  0  0  0  0  0  0  0  0999 V2000
    3.6667   -4.2292    0.0000 C   0  0  0  0  0  0  0  0  0  0  0  0
    4.3917   -4.6417    0.0000 C   0  0  0  0  0  0  0  0  0  0  0  0
    5.1042   -4.2250    0.0000 C   0  0  0  0  0  0  0  0  0  0  0  0
    6.5417   -4.2250    0.0000 C   0  0  0  0  0  0  0  0  0  0  0  0
    5.8250   -4.6375    0.0000 C   0  0  0  0  0  0  0  0  0  0  0  0
    7.3000   -4.5542    0.0000 S   0  0  0  0  0  0  0  0  0  0  0  0
    3.6667   -3.3917    0.0000 C   0  0  0  0  0  0  0  0  0  0  0  0
    2.9500   -4.6417    0.0000 C   0  0  0  0  0  0  0  0  0  0  0  0
    7.8542   -3.9417    0.0000 C   0  0  0  0  0  0  0  0  0  0  0  0
    6.6250   -3.3917    0.0000 C   0  0  0  0  0  0  0  0  0  0  0  0
    7.4375   -3.2250    0.0000 C   0  0  0  0  0  0  0  0  0  0  0  0
    4.3917   -5.4667    0.0000 O   0  0  0  0  0  0  0  0  0  0  0  0
    2.9500   -2.9792    0.0000 C   0  0  0  0  0  0  0  0  0  0  0  0
    2.2292   -4.2292    0.0000 C   0  0  0  0  0  0  0  0  0  0  0  0
    2.2292   -3.3917    0.0000 C   0  0  0  0  0  0  0  0  0  0  0  0
    4.3875   -2.9750    0.0000 O   0  0  0  0  0  0  0  0  0  0  0  0
    1.5125   -4.6375    0.0000 Br  0  0  0  0  0  0  0  0  0  0  0  0
  2  1  1  0  0  0  0
  3  2  1  0  0  0  0
  4  5  1  0  0  0  0
  5  3  2  0  0  0  0
  6  4  1  0  0  0  0
  7  1  1  0  0  0  0
  8  1  2  0  0  0  0
  9  6  1  0  0  0  0
 10  4  2  0  0  0  0
 11 10  1  0  0  0  0
 12  2  2  0  0  0  0
 13  7  2  0  0  0  0
 14  8  1  0  0  0  0
 15 14  2  0  0  0  0
 16  7  1  0  0  0  0
 17 14  1  0  0  0  0
 15 13  1  0  0  0  0
 11  9  2  0  0  0  0
M  END
> <#>
1331

> <PLATE>
LAT017

> <ROW>
C

> <COL>
8

> <COORD>
C08

> <LATID>
LAT017C08

> <Supplier>
Chembridge

> <Suplier_CAT#>
7117756

> <Name>
Novel

> <Concentration_(mM)>
2.5

> <IC50_(µM)>
>100

> <Yeast_Active?>
+

> <Pubchem_CID>
2927211

$$$$
