
  -ISIS-  08130814242D

 20 21  0  0  0  0  0  0  0  0999 V2000
    3.7000   -1.6667    0.0000 N   0  3  0  0  0  0  0  0  0  0  0  0
    2.3000    0.9000    0.0000 C   0  0  0  0  0  0  0  0  0  0  0  0
    3.3792   -1.0167    0.0000 C   0  0  0  0  0  0  0  0  0  0  0  0
    1.2000    0.2833    0.0000 N   0  0  0  0  0  0  0  0  0  0  0  0
    3.2875   -2.2792    0.0000 O   0  5  0  0  0  0  0  0  0  0  0  0
    4.4292   -1.6875    0.0000 O   0  0  0  0  0  0  0  0  0  0  0  0
    2.6542    0.2625    0.0000 C   0  0  0  0  0  0  0  0  0  0  0  0
    1.5542    0.9000    0.0000 N   0  0  0  0  0  0  0  0  0  0  0  0
    2.6542    1.5458    0.0000 O   0  0  0  0  0  0  0  0  0  0  0  0
   -1.0208   -1.0167    0.0000 N   0  0  0  0  0  0  0  0  0  0  0  0
    3.7542   -0.3792    0.0000 C   0  0  0  0  0  0  0  0  0  0  0  0
    2.6792   -1.0167    0.0000 C   0  0  0  0  0  0  0  0  0  0  0  0
    2.3000   -0.3792    0.0000 C   0  0  0  0  0  0  0  0  0  0  0  0
    3.4000    0.2625    0.0000 C   0  0  0  0  0  0  0  0  0  0  0  0
    0.4542    0.2833    0.0000 C   0  0  0  0  0  0  0  0  0  0  0  0
    0.0792   -0.3792    0.0000 C   0  0  0  0  0  0  0  0  0  0  0  0
   -0.6625   -0.3792    0.0000 C   0  0  0  0  0  0  0  0  0  0  0  0
   -0.6625   -1.6375    0.0000 C   0  0  0  0  0  0  0  0  0  0  0  0
    0.4375   -1.0167    0.0000 C   0  0  0  0  0  0  0  0  0  0  0  0
    0.0792   -1.6375    0.0000 C   0  0  0  0  0  0  0  0  0  0  0  0
  2  7  1  0  0  0  0
  3  1  1  0  0  0  0
  4  8  1  0  0  0  0
  5  1  1  0  0  0  0
  6  1  2  0  0  0  0
  7 13  2  0  0  0  0
  8  2  1  0  0  0  0
  9  2  2  0  0  0  0
 10 17  1  0  0  0  0
 11  3  1  0  0  0  0
 12  3  2  0  0  0  0
 13 12  1  0  0  0  0
 14 11  2  0  0  0  0
 15  4  2  0  0  0  0
 16 15  1  0  0  0  0
 17 16  2  0  0  0  0
 18 20  1  0  0  0  0
 19 16  1  0  0  0  0
 20 19  2  0  0  0  0
  7 14  1  0  0  0  0
 10 18  2  0  0  0  0
M  CHG  2   1   1   5  -1
M  END
> <#>
1604

> <PLATE>
LAT021

> <ROW>
D

> <COL>
2

> <COORD>
D02

> <LATID>
LAT021D02

> <Supplier>
Chembridge

> <Suplier_CAT#>
5330458

> <Name>
Novel

> <Concentration_(mM)>
2.5

> <IC50_(µM)>
>100

> <Yeast_Active?>
-

> <Pubchem_CID>
591492

$$$$
