
  -ISIS-  08130814242D

 21 23  0  0  0  0  0  0  0  0999 V2000
    2.8250   -5.3417    0.0000 C   0  0  0  0  0  0  0  0  0  0  0  0
    3.5417   -4.1042    0.0000 C   0  0  0  0  0  0  0  0  0  0  0  0
    2.1125   -5.7542    0.0000 C   0  0  0  0  0  0  0  0  0  0  0  0
    2.8250   -4.5167    0.0000 C   0  0  0  0  0  0  0  0  0  0  0  0
    4.2542   -4.5250    0.0000 N   0  0  0  0  0  0  0  0  0  0  0  0
    6.3917   -4.9375    0.0000 N   0  0  0  0  0  0  0  0  0  0  0  0
    3.5417   -3.2792    0.0000 O   0  0  0  0  0  0  0  0  0  0  0  0
    2.1042   -6.5792    0.0000 C   0  0  0  0  0  0  0  0  0  0  0  0
    5.6792   -4.5250    0.0000 C   0  0  0  0  0  0  0  0  0  0  0  0
    4.9667   -4.9375    0.0000 C   0  0  0  0  0  0  0  0  0  0  0  0
    3.5375   -5.7542    0.0000 C   0  0  0  0  0  0  0  0  0  0  0  0
    3.5375   -6.5875    0.0000 C   0  0  0  0  0  0  0  0  0  0  0  0
    7.1125   -4.5250    0.0000 C   0  0  0  0  0  0  0  0  0  0  0  0
    1.4000   -5.3417    0.0000 C   0  0  0  0  0  0  0  0  0  0  0  0
    2.8167   -6.9917    0.0000 C   0  0  0  0  0  0  0  0  0  0  0  0
    1.3917   -6.9917    0.0000 C   0  0  0  0  0  0  0  0  0  0  0  0
    5.6792   -3.7000    0.0000 C   0  0  0  0  0  0  0  0  0  0  0  0
    7.1125   -3.6917    0.0000 C   0  0  0  0  0  0  0  0  0  0  0  0
    0.6875   -5.7500    0.0000 C   0  0  0  0  0  0  0  0  0  0  0  0
    0.6792   -6.5792    0.0000 C   0  0  0  0  0  0  0  0  0  0  0  0
    6.3917   -3.2792    0.0000 C   0  0  0  0  0  0  0  0  0  0  0  0
  2  4  1  0  0  0  0
  3  1  1  0  0  0  0
  4  1  1  0  0  0  0
  5  2  1  0  0  0  0
  6  9  1  0  0  0  0
  7  2  2  0  0  0  0
  8  3  1  0  0  0  0
  9 10  1  0  0  0  0
 10  5  1  0  0  0  0
 11  1  2  0  0  0  0
 12 11  1  0  0  0  0
 13  6  2  0  0  0  0
 14  3  2  0  0  0  0
 15 12  2  0  0  0  0
 16  8  2  0  0  0  0
 17  9  2  0  0  0  0
 18 21  2  0  0  0  0
 19 14  1  0  0  0  0
 20 19  2  0  0  0  0
 21 17  1  0  0  0  0
 15  8  1  0  0  0  0
 20 16  1  0  0  0  0
 18 13  1  0  0  0  0
M  END
> <#>
1564

> <PLATE>
LAT020

> <ROW>
D

> <COL>
7

> <COORD>
D07

> <LATID>
LAT020D07

> <Supplier>
Chembridge

> <Suplier_CAT#>
7688259

> <Name>
Novel

> <Concentration_(mM)>
2.5

> <IC50_(µM)>
53

> <Yeast_Active?>
-

> <Pubchem_CID>
NULL

$$$$
