
  -ISIS-  08130814242D

 26 28  0  0  0  0  0  0  0  0999 V2000
    0.0042    0.7958    0.0000 S   0  0  3  0  0  0  0  0  0  0  0  0
   -0.2958    1.3125    0.0000 N   0  0  3  0  0  0  0  0  0  0  0  0
   -1.2125    1.8625    0.0000 C   0  0  3  0  0  0  0  0  0  0  0  0
   -0.9208    1.3208    0.0000 C   0  0  0  0  0  0  0  0  0  0  0  0
   -1.8208    1.8958    0.0000 C   0  0  0  0  0  0  0  0  0  0  0  0
   -0.4625    0.5125    0.0000 O   0  0  0  0  0  0  0  0  0  0  0  0
    0.4667    1.0708    0.0000 O   0  0  0  0  0  0  0  0  0  0  0  0
    0.3292    0.2500    0.0000 C   0  0  0  0  0  0  0  0  0  0  0  0
   -2.7208    1.3625    0.0000 N   0  0  0  0  0  0  0  0  0  0  0  0
   -2.1208    1.3625    0.0000 N   0  0  0  0  0  0  0  0  0  0  0  0
   -2.1125    2.4208    0.0000 O   0  0  0  0  0  0  0  0  0  0  0  0
   -4.5208    0.3000    0.0000 N   0  0  0  0  0  0  0  0  0  0  0  0
   -3.0125    0.8458    0.0000 C   0  0  0  0  0  0  0  0  0  0  0  0
   -3.6208    0.8458    0.0000 C   0  0  0  0  0  0  0  0  0  0  0  0
    0.0292    1.8458    0.0000 C   0  0  0  0  0  0  0  0  0  0  0  0
   -0.9000    2.3708    0.0000 C   0  0  0  0  0  0  0  0  0  0  0  0
   -3.9125    0.3208    0.0000 C   0  0  0  0  0  0  0  0  0  0  0  0
   -0.2708    2.3833    0.0000 C   0  0  0  0  0  0  0  0  0  0  0  0
   -4.8333    0.8208    0.0000 C   0  0  0  0  0  0  0  0  0  0  0  0
    0.0042   -0.2792    0.0000 C   0  0  0  0  0  0  0  0  0  0  0  0
    0.9292    0.2500    0.0000 C   0  0  0  0  0  0  0  0  0  0  0  0
   -3.9458    1.3500    0.0000 C   0  0  0  0  0  0  0  0  0  0  0  0
   -4.5500    1.3333    0.0000 C   0  0  0  0  0  0  0  0  0  0  0  0
    1.2167   -0.2875    0.0000 C   0  0  0  0  0  0  0  0  0  0  0  0
    0.3042   -0.8292    0.0000 C   0  0  0  0  0  0  0  0  0  0  0  0
    0.9292   -0.8292    0.0000 C   0  0  0  0  0  0  0  0  0  0  0  0
  2  1  1  0  0  0  0
  3  4  1  0  0  0  0
  4  2  1  0  0  0  0
  5  3  1  0  0  0  0
  6  1  2  0  0  0  0
  7  1  2  0  0  0  0
  8  1  1  0  0  0  0
  9 10  1  0  0  0  0
 10  5  1  0  0  0  0
 11  5  2  0  0  0  0
 12 17  1  0  0  0  0
 13  9  2  0  0  0  0
 14 13  1  0  0  0  0
 15  2  1  0  0  0  0
 16 18  1  0  0  0  0
 17 14  2  0  0  0  0
 18 15  1  0  0  0  0
 19 23  1  0  0  0  0
 20  8  2  0  0  0  0
 21  8  1  0  0  0  0
 22 14  1  0  0  0  0
 23 22  2  0  0  0  0
 24 21  2  0  0  0  0
 25 20  1  0  0  0  0
 26 24  1  0  0  0  0
 26 25  2  0  0  0  0
 16  3  1  0  0  0  0
 19 12  2  0  0  0  0
M  END
> <#>
1670

> <PLATE>
LAT021

> <ROW>
F

> <COL>
10

> <COORD>
F10

> <LATID>
LAT021F10

> <Supplier>
Chembridge

> <Suplier_CAT#>
5730754

> <Name>
Novel

> <Concentration_(mM)>
2.5

> <IC50_(µM)>
>100

> <Yeast_Active?>
-

> <Pubchem_CID>
5725543

$$$$
