
  -ISIS-  08130814242D

 22 23  0  0  0  0  0  0  0  0999 V2000
   -0.3333    1.1958    0.0000 N   0  0  0  0  0  0  0  0  0  0  0  0
   -0.0833   -0.5500    0.0000 C   0  0  3  0  0  0  0  0  0  0  0  0
    0.3875    1.3500    0.0000 C   0  0  0  0  0  0  0  0  0  0  0  0
   -0.5708    0.4708    0.0000 C   0  0  3  0  0  0  0  0  0  0  0  0
   -1.2708    0.3333    0.0000 N   0  0  0  0  0  0  0  0  0  0  0  0
   -2.2458   -0.5042    0.0000 C   0  0  0  0  0  0  0  0  0  0  0  0
    0.8875    0.7958    0.0000 C   0  0  0  0  0  0  0  0  0  0  0  0
   -2.7958    0.0000    0.0000 O   0  0  0  0  0  0  0  0  0  0  0  0
    0.6042    2.0500    0.0000 O   0  0  0  0  0  0  0  0  0  0  0  0
   -2.5833   -1.1875    0.0000 C   0  0  0  0  0  0  0  0  0  0  0  0
   -3.4625   -0.3667    0.0000 C   0  0  0  0  0  0  0  0  0  0  0  0
   -3.3125   -1.1000    0.0000 C   0  0  0  0  0  0  0  0  0  0  0  0
   -0.3958   -1.1875    0.0000 Cl  0  0  0  0  0  0  0  0  0  0  0  0
    0.5000   -0.8542    0.0000 Cl  0  0  0  0  0  0  0  0  0  0  0  0
    0.0792   -1.3042    0.0000 Cl  0  0  0  0  0  0  0  0  0  0  0  0
   -1.5125   -0.3667    0.0000 C   0  0  0  0  0  0  0  0  0  0  0  0
    0.6667    0.0958    0.0000 C   0  0  0  0  0  0  0  0  0  0  0  0
    1.6042    0.9500    0.0000 C   0  0  0  0  0  0  0  0  0  0  0  0
    2.1042    0.4125    0.0000 C   0  0  0  0  0  0  0  0  0  0  0  0
    1.1667   -0.4500    0.0000 C   0  0  0  0  0  0  0  0  0  0  0  0
    1.8875   -0.2875    0.0000 C   0  0  0  0  0  0  0  0  0  0  0  0
    2.3792   -0.8500    0.0000 C   0  0  0  0  0  0  0  0  0  0  0  0
  2  4  1  0  0  0  0
  3  1  1  0  0  0  0
  4  1  1  0  0  0  0
  5  4  1  0  0  0  0
  6 16  1  0  0  0  0
  7  3  1  0  0  0  0
  8  6  1  0  0  0  0
  9  3  2  0  0  0  0
 10  6  2  0  0  0  0
 11  8  1  0  0  0  0
 12 10  1  0  0  0  0
 13  2  1  0  0  0  0
 14  2  1  0  0  0  0
 15  2  1  0  0  0  0
 16  5  1  0  0  0  0
 17  7  2  0  0  0  0
 18  7  1  0  0  0  0
 19 18  2  0  0  0  0
 20 17  1  0  0  0  0
 21 19  1  0  0  0  0
 22 21  1  0  0  0  0
 20 21  2  0  0  0  0
 12 11  2  0  0  0  0
M  END
> <#>
1783

> <PLATE>
LAT023

> <ROW>
G

> <COL>
4

> <COORD>
G04

> <LATID>
LAT023G04

> <Supplier>
Chembridge

> <Suplier_CAT#>
5547136

> <Name>
Furamiben

> <Sec_Name>
163_D07

> <Concentration_(mM)>
2.5

> <IC50_(µM)>
1.3

> <Yeast_Active?>
-

> <Pubchem_CID>
1014600

$$$$
