
  -ISIS-  08130814242D

 26 29  0  0  0  0  0  0  0  0999 V2000
    6.8750   -6.7917    0.0000 C   0  0  2  0  0  0  0  0  0  0  0  0
    7.5875   -6.5667    0.0000 C   0  0  1  0  0  0  0  0  0  0  0  0
    6.8750   -7.5417    0.0000 C   0  0  3  0  0  0  0  0  0  0  0  0
    4.9292   -8.6667    0.0000 C   0  0  0  0  0  0  0  0  0  0  0  0
    6.2250   -7.9167    0.0000 C   0  0  3  0  0  0  0  0  0  0  0  0
    5.5750   -7.5417    0.0000 C   0  0  3  0  0  0  0  0  0  0  0  0
    4.9292   -7.9167    0.0000 C   0  0  1  0  0  0  0  0  0  0  0  0
    7.7500   -5.8375    0.0000 C   0  0  0  0  0  0  0  0  0  0  0  0
    4.2875   -9.0417    0.0000 C   0  0  0  0  0  0  0  0  0  0  0  0
    6.2250   -6.4167    0.0000 C   0  0  0  0  0  0  0  0  0  0  0  0
    8.7000   -6.5667    0.0000 O   0  0  0  0  0  0  0  0  0  0  0  0
    5.5750   -6.7917    0.0000 C   0  0  0  0  0  0  0  0  0  0  0  0
    7.5875   -7.7750    0.0000 C   0  0  0  0  0  0  0  0  0  0  0  0
    6.2250   -8.6667    0.0000 C   0  0  0  0  0  0  0  0  0  0  0  0
    7.9125   -5.1042    0.0000 C   0  0  0  0  0  0  0  0  0  0  0  0
    4.2875   -7.5417    0.0000 C   0  0  0  0  0  0  0  0  0  0  0  0
    9.3250   -6.5667    0.0000 C   0  0  0  0  0  0  0  0  0  0  0  0
    8.0250   -7.1625    0.0000 C   0  0  0  0  0  0  0  0  0  0  0  0
    5.5750   -9.0417    0.0000 C   0  0  0  0  0  0  0  0  0  0  0  0
    3.6375   -8.6667    0.0000 C   0  0  0  0  0  0  0  0  0  0  0  0
    9.5125   -5.9042    0.0000 O   0  0  0  0  0  0  0  0  0  0  0  0
    2.9792   -9.0500    0.0000 O   0  0  0  0  0  0  0  0  0  0  0  0
    3.6375   -7.9167    0.0000 C   0  0  0  0  0  0  0  0  0  0  0  0
    6.8292   -5.8500    0.0000 C   0  0  0  0  0  0  0  0  0  0  0  0
    9.8250   -6.9042    0.0000 C   0  0  0  0  0  0  0  0  0  0  0  0
    4.9292   -7.1667    0.0000 H   0  0  0  0  0  0  0  0  0  0  0  0
  2  1  1  0  0  0  0
  3  1  1  0  0  0  0
  4  7  1  0  0  0  0
  5  3  1  0  0  0  0
  6 12  1  0  0  0  0
  7  6  1  0  0  0  0
  2  8  1  6  0  0  0
  9  4  2  0  0  0  0
 10  1  1  0  0  0  0
  2 11  1  1  0  0  0
 12 10  1  0  0  0  0
 13  3  1  0  0  0  0
 14  5  1  0  0  0  0
 15  8  3  0  0  0  0
 16  7  1  0  0  0  0
 17 11  1  0  0  0  0
 18  2  1  0  0  0  0
 19 14  1  0  0  0  0
 20 23  1  0  0  0  0
 21 17  2  0  0  0  0
 22 20  2  0  0  0  0
 23 16  1  0  0  0  0
  1 24  1  1  0  0  0
 25 17  1  0  0  0  0
  7 26  1  1  0  0  0
 13 18  1  0  0  0  0
  5  6  1  0  0  0  0
  4 19  1  0  0  0  0
  9 20  1  0  0  0  0
M  END
> <#>
109

> <PLATE>
LAT002

> <ROW>
E

> <COL>
5

> <COORD>
E05

> <LATID>
LAT002E05

> <Supplier>
Microsource

> <Suplier_CAT#>
01500438

> <Name>
Norethindrone Acetate

> <Concentration_(mM)>
2.5

> <IC50_(µM)>
21

> <Yeast_Active?>
-

> <Pubchem_CID>
5832

> <Description>
Oral Contraceptive (In Combination With Estrogen)

$$$$
