
  -ISIS-  08130814242D

 24 26  0  0  0  0  0  0  0  0999 V2000
    1.1500   -0.3917    0.0000 N   0  0  3  0  0  0  0  0  0  0  0  0
    1.0750   -1.1917    0.0000 C   0  0  0  0  0  0  0  0  0  0  0  0
    0.4167   -0.0542    0.0000 C   0  0  0  0  0  0  0  0  0  0  0  0
    0.2792   -1.3667    0.0000 C   0  0  0  0  0  0  0  0  0  0  0  0
   -0.1333   -0.6667    0.0000 C   0  0  0  0  0  0  0  0  0  0  0  0
    0.2500    0.7500    0.0000 O   0  0  0  0  0  0  0  0  0  0  0  0
    1.6917   -1.7417    0.0000 O   0  0  0  0  0  0  0  0  0  0  0  0
    3.9625   -0.3917    0.0000 C   0  0  0  0  0  0  0  0  0  0  0  0
    4.7375    0.0500    0.0000 N   0  0  0  0  0  0  0  0  0  0  0  0
    6.8417   -0.3542    0.0000 N   0  0  0  0  0  0  0  0  0  0  0  0
    3.9542   -1.2792    0.0000 O   0  0  0  0  0  0  0  0  0  0  0  0
    1.8542    0.0208    0.0000 C   0  0  0  0  0  0  0  0  0  0  0  0
    6.1375    0.0500    0.0000 C   0  0  0  0  0  0  0  0  0  0  0  0
    5.4375   -0.3500    0.0000 C   0  0  0  0  0  0  0  0  0  0  0  0
   -0.9500   -0.6667    0.0000 C   0  0  0  0  0  0  0  0  0  0  0  0
   -0.1250   -2.0750    0.0000 C   0  0  0  0  0  0  0  0  0  0  0  0
    2.5542   -0.3917    0.0000 C   0  0  0  0  0  0  0  0  0  0  0  0
    3.2542    0.0208    0.0000 C   0  0  0  0  0  0  0  0  0  0  0  0
    7.5500    0.0458    0.0000 C   0  0  0  0  0  0  0  0  0  0  0  0
    6.1417    0.8625    0.0000 C   0  0  0  0  0  0  0  0  0  0  0  0
   -0.9375   -2.0792    0.0000 C   0  0  0  0  0  0  0  0  0  0  0  0
   -1.3583   -1.3792    0.0000 C   0  0  0  0  0  0  0  0  0  0  0  0
    7.5542    0.8583    0.0000 C   0  0  0  0  0  0  0  0  0  0  0  0
    6.8417    1.2708    0.0000 C   0  0  0  0  0  0  0  0  0  0  0  0
  2  1  1  0  0  0  0
  3  1  1  0  0  0  0
  4  2  1  0  0  0  0
  5  3  1  0  0  0  0
  6  3  2  0  0  0  0
  7  2  2  0  0  0  0
  8 18  1  0  0  0  0
  9  8  1  0  0  0  0
 10 13  1  0  0  0  0
 11  8  2  0  0  0  0
 12  1  1  0  0  0  0
 13 14  1  0  0  0  0
 14  9  1  0  0  0  0
 15  5  1  0  0  0  0
 16  4  1  0  0  0  0
 17 12  1  0  0  0  0
 18 17  1  0  0  0  0
 19 10  2  0  0  0  0
 20 13  2  0  0  0  0
 21 16  2  0  0  0  0
 22 15  2  0  0  0  0
 23 24  2  0  0  0  0
 24 20  1  0  0  0  0
  5  4  2  0  0  0  0
 21 22  1  0  0  0  0
 19 23  1  0  0  0  0
M  END
> <#>
1508

> <PLATE>
LAT019

> <ROW>
D

> <COL>
10

> <COORD>
D10

> <LATID>
LAT019D10

> <Supplier>
Chembridge

> <Suplier_CAT#>
7781134

> <Name>
Novel

> <Concentration_(mM)>
2.5

> <IC50_(µM)>
inactive

> <Yeast_Active?>
-

> <Pubchem_CID>
NULL

$$$$
