
  -ISIS-  08130814242D

 17 17  0  0  0  0  0  0  0  0999 V2000
   -0.4625   -1.4667    0.0000 C   0  0  0  0  0  0  0  0  0  0  0  0
    1.1375   -1.4542    0.0000 C   0  0  3  0  0  0  0  0  0  0  0  0
    0.3375   -1.0000    0.0000 C   0  0  0  0  0  0  0  0  0  0  0  0
   -1.2708   -1.0042    0.0000 C   0  0  0  0  0  0  0  0  0  0  0  0
   -2.0833   -1.4792    0.0000 C   0  0  0  0  0  0  0  0  0  0  0  0
   -2.8958   -1.0042    0.0000 C   0  0  0  0  0  0  0  0  0  0  0  0
   -1.2708   -0.0792    0.0000 O   0  0  0  0  0  0  0  0  0  0  0  0
    1.9375   -1.9167    0.0000 F   0  0  0  0  0  0  0  0  0  0  0  0
    1.6042   -0.6500    0.0000 F   0  0  0  0  0  0  0  0  0  0  0  0
    0.6667   -2.2667    0.0000 F   0  0  0  0  0  0  0  0  0  0  0  0
    0.3375   -0.0667    0.0000 N   0  0  0  0  0  0  0  0  0  0  0  0
   -2.8958   -0.0792    0.0000 O   0  0  0  0  0  0  0  0  0  0  0  0
   -2.0833   -2.4167    0.0000 C   0  0  0  0  0  0  0  0  0  0  0  0
   -3.7000   -1.4792    0.0000 C   0  0  0  0  0  0  0  0  0  0  0  0
    1.1375    0.4000    0.0000 C   0  0  0  0  0  0  0  0  0  0  0  0
   -2.8958   -2.8875    0.0000 C   0  0  0  0  0  0  0  0  0  0  0  0
   -3.7000   -2.4167    0.0000 C   0  0  0  0  0  0  0  0  0  0  0  0
  2  3  1  0  0  0  0
  3  1  2  0  0  0  0
  4  1  1  0  0  0  0
  5  4  1  0  0  0  0
  6  5  1  0  0  0  0
  7  4  2  0  0  0  0
  8  2  1  0  0  0  0
  9  2  1  0  0  0  0
 10  2  1  0  0  0  0
 11  3  1  0  0  0  0
 12  6  1  0  0  0  0
 13  5  2  0  0  0  0
 14  6  2  0  0  0  0
 15 11  1  0  0  0  0
 16 13  1  0  0  0  0
 17 16  2  0  0  0  0
 14 17  1  0  0  0  0
M  END
> <#>
1187

> <PLATE>
LAT015

> <ROW>
C

> <COL>
10

> <COORD>
C10

> <LATID>
LAT015C10

> <Supplier>
Chembridge

> <Suplier_CAT#>
5492965

> <Name>
Novel

> <Concentration_(mM)>
2.5

> <IC50_(µM)>
inactive

> <Yeast_Active?>
-

> <Pubchem_CID>
870672

$$$$
