
  -ISIS-  08130814242D

 20 21  0  0  0  0  0  0  0  0999 V2000
    2.4875   -2.1042    0.0000 C   0  0  0  0  0  0  0  0  0  0  0  0
    3.2042   -2.5167    0.0000 C   0  0  0  0  0  0  0  0  0  0  0  0
    2.4875   -1.2667    0.0000 C   0  0  0  0  0  0  0  0  0  0  0  0
    1.7667   -0.8542    0.0000 C   0  0  0  0  0  0  0  0  0  0  0  0
    1.7667   -2.5167    0.0000 C   0  0  0  0  0  0  0  0  0  0  0  0
    3.9167   -2.1000    0.0000 C   0  0  0  0  0  0  0  0  0  0  0  0
    3.2000   -3.3417    0.0000 O   0  0  0  0  0  0  0  0  0  0  0  0
    1.0542   -1.2750    0.0000 C   0  0  0  0  0  0  0  0  0  0  0  0
    4.6292   -2.5125    0.0000 C   0  0  0  0  0  0  0  0  0  0  0  0
    3.2042   -0.8500    0.0000 O   0  0  0  0  0  0  0  0  0  0  0  0
    1.0542   -2.1042    0.0000 C   0  0  0  0  0  0  0  0  0  0  0  0
    6.0542   -3.3375    0.0000 C   0  0  0  0  0  0  0  0  0  0  0  0
    4.6292   -3.3292    0.0000 C   0  0  0  0  0  0  0  0  0  0  0  0
    5.3417   -2.1000    0.0000 C   0  0  0  0  0  0  0  0  0  0  0  0
    6.0500   -2.5042    0.0000 C   0  0  0  0  0  0  0  0  0  0  0  0
    5.3375   -3.7417    0.0000 C   0  0  0  0  0  0  0  0  0  0  0  0
    0.3292   -0.8542    0.0000 O   0  0  0  0  0  0  0  0  0  0  0  0
    6.7667   -3.7500    0.0000 O   0  0  0  0  0  0  0  0  0  0  0  0
    7.4792   -3.3292    0.0000 C   0  0  0  0  0  0  0  0  0  0  0  0
    8.1917   -3.7417    0.0000 C   0  0  0  0  0  0  0  0  0  0  0  0
  2  1  1  0  0  0  0
  3  1  1  0  0  0  0
  4  3  2  0  0  0  0
  5  1  2  0  0  0  0
  6  2  1  0  0  0  0
  7  2  2  0  0  0  0
  8 11  2  0  0  0  0
  9  6  1  0  0  0  0
 10  3  1  0  0  0  0
 11  5  1  0  0  0  0
 12 15  1  0  0  0  0
 13  9  2  0  0  0  0
 14  9  1  0  0  0  0
 15 14  2  0  0  0  0
 16 13  1  0  0  0  0
 17  8  1  0  0  0  0
 18 12  1  0  0  0  0
 19 18  1  0  0  0  0
 20 19  1  0  0  0  0
  8  4  1  0  0  0  0
 12 16  2  0  0  0  0
M  END
> <#>
1358

> <PLATE>
LAT017

> <ROW>
F

> <COL>
11

> <COORD>
F11

> <LATID>
LAT017F11

> <Supplier>
Chembridge

> <Suplier_CAT#>
7644398

> <Name>
Novel

> <Concentration_(mM)>
2.5

> <IC50_(µM)>
>100

> <Yeast_Active?>
-

> <Pubchem_CID>
895501

$$$$
