
  -ISIS-  08130814242D

 19 20  0  0  0  0  0  0  0  0999 V2000
    0.8875    0.3625    0.0000 C   0  0  0  0  0  0  0  0  0  0  0  0
    1.9292   -0.2542    0.0000 C   0  0  0  0  0  0  0  0  0  0  0  0
    4.0042   -0.2542    0.0000 C   0  0  0  0  0  0  0  0  0  0  0  0
    2.9667    0.3458    0.0000 C   0  0  0  0  0  0  0  0  0  0  0  0
   -1.2125    0.3625    0.0000 N   0  0  0  0  0  0  0  0  0  0  0  0
    4.0042   -1.4542    0.0000 C   0  0  0  0  0  0  0  0  0  0  0  0
   -0.1500   -0.2542    0.0000 N   0  0  0  0  0  0  0  0  0  0  0  0
    0.8875    1.5625    0.0000 O   0  0  0  0  0  0  0  0  0  0  0  0
   -5.3500    0.3625    0.0000 N   0  0  0  0  0  0  0  0  0  0  0  0
    1.9292   -1.4542    0.0000 C   0  0  0  0  0  0  0  0  0  0  0  0
    2.9667   -2.0542    0.0000 C   0  0  0  0  0  0  0  0  0  0  0  0
   -2.2500   -0.2542    0.0000 C   0  0  0  0  0  0  0  0  0  0  0  0
   -3.2958    0.3625    0.0000 C   0  0  0  0  0  0  0  0  0  0  0  0
    5.0500    0.3625    0.0000 Cl  0  0  0  0  0  0  0  0  0  0  0  0
    5.0500   -2.0542    0.0000 Cl  0  0  0  0  0  0  0  0  0  0  0  0
   -4.3125   -0.2542    0.0000 C   0  0  0  0  0  0  0  0  0  0  0  0
   -5.3500    1.5625    0.0000 C   0  0  0  0  0  0  0  0  0  0  0  0
   -3.2958    1.5625    0.0000 C   0  0  0  0  0  0  0  0  0  0  0  0
   -4.3125    2.1625    0.0000 C   0  0  0  0  0  0  0  0  0  0  0  0
  2  1  1  0  0  0  0
  3  4  1  0  0  0  0
  4  2  2  0  0  0  0
  5  7  1  0  0  0  0
  6 11  1  0  0  0  0
  7  1  1  0  0  0  0
  8  1  2  0  0  0  0
  9 16  2  0  0  0  0
 10  2  1  0  0  0  0
 11 10  2  0  0  0  0
 12  5  2  0  0  0  0
 13 12  1  0  0  0  0
 14  3  1  0  0  0  0
 15  6  1  0  0  0  0
 16 13  1  0  0  0  0
 17 19  2  0  0  0  0
 18 13  2  0  0  0  0
 19 18  1  0  0  0  0
  3  6  2  0  0  0  0
  9 17  1  0  0  0  0
M  END
> <#>
1676

> <PLATE>
LAT021

> <ROW>
D

> <COL>
11

> <COORD>
D11

> <LATID>
LAT021D11

> <Supplier>
Chembridge

> <Suplier_CAT#>
5636784

> <Name>
Chlohydrapyr

> <Concentration_(mM)>
2.5

> <IC50_(µM)>
18

> <Yeast_Active?>
-

> <Pubchem_CID>
840431

$$$$
