
  -ISIS-  08130814242D

 37 39  0  0  0  0  0  0  0  0999 V2000
   -0.5625   -0.7542    0.0000 C   0  0  0  0  0  0  0  0  0  0  0  0
   -0.8458   -0.3542    0.0000 N   0  0  3  0  0  0  0  0  0  0  0  0
   -0.8458   -1.1542    0.0000 N   0  0  3  0  0  0  0  0  0  0  0  0
   -1.3208   -0.5000    0.0000 C   0  0  0  0  0  0  0  0  0  0  0  0
   -1.3208   -1.0167    0.0000 C   0  0  0  0  0  0  0  0  0  0  0  0
   -0.1833    1.6000    0.0000 C   0  0  0  0  0  0  0  0  0  0  0  0
   -1.0458    1.8833    0.0000 C   0  0  0  0  0  0  0  0  0  0  0  0
   -0.5625    2.0000    0.0000 C   0  0  0  0  0  0  0  0  0  0  0  0
   -0.6833    0.1458    0.0000 C   0  0  0  0  0  0  0  0  0  0  0  0
   -0.8458    1.0208    0.0000 C   0  0  0  0  0  0  0  0  0  0  0  0
   -0.3625    1.1208    0.0000 C   0  0  0  0  0  0  0  0  0  0  0  0
   -1.1833    1.4000    0.0000 C   0  0  0  0  0  0  0  0  0  0  0  0
   -1.0208    0.5208    0.0000 C   0  0  0  0  0  0  0  0  0  0  0  0
   -0.0625   -0.7792    0.0000 N   0  0  0  0  0  0  0  0  0  0  0  0
   -0.6833   -1.6542    0.0000 C   0  0  0  0  0  0  0  0  0  0  0  0
   -1.3833    2.2708    0.0000 C   0  0  3  0  0  0  0  0  0  0  0  0
    0.3375    1.7000    0.0000 C   0  0  3  0  0  0  0  0  0  0  0  0
   -1.5000    0.4208    0.0000 O   0  0  0  0  0  0  0  0  0  0  0  0
   -0.4458    2.5000    0.0000 O   0  0  0  0  0  0  0  0  0  0  0  0
   -1.0208   -2.0375    0.0000 C   0  0  0  0  0  0  0  0  0  0  0  0
   -1.7000   -2.7542    0.0000 C   0  0  0  0  0  0  0  0  0  0  0  0
   -2.0625   -3.1167    0.0000 Cl  0  0  0  0  0  0  0  0  0  0  0  0
   -1.7625   -1.2542    0.0000 C   0  0  0  0  0  0  0  0  0  0  0  0
   -1.7625   -0.2542    0.0000 C   0  0  0  0  0  0  0  0  0  0  0  0
   -1.5000   -1.9167    0.0000 C   0  0  0  0  0  0  0  0  0  0  0  0
   -0.8625   -2.5167    0.0000 C   0  0  0  0  0  0  0  0  0  0  0  0
   -1.8458   -2.2792    0.0000 C   0  0  0  0  0  0  0  0  0  0  0  0
   -1.2000   -2.8792    0.0000 C   0  0  0  0  0  0  0  0  0  0  0  0
    0.4167    1.1833    0.0000 C   0  0  0  0  0  0  0  0  0  0  0  0
    0.2375    2.2083    0.0000 C   0  0  0  0  0  0  0  0  0  0  0  0
    0.8375    1.7833    0.0000 C   0  0  0  0  0  0  0  0  0  0  0  0
   -1.7625    1.9208    0.0000 C   0  0  0  0  0  0  0  0  0  0  0  0
   -1.7208    2.6458    0.0000 C   0  0  0  0  0  0  0  0  0  0  0  0
   -1.0000    2.6000    0.0000 C   0  0  0  0  0  0  0  0  0  0  0  0
   -2.2000   -0.5167    0.0000 C   0  0  0  0  0  0  0  0  0  0  0  0
   -2.2000   -1.0000    0.0000 C   0  0  0  0  0  0  0  0  0  0  0  0
    1.7000   -0.6792    0.0000 Br  0  0  0  0  0  0  0  0  0  0  0  0
  2  1  1  0  0  0  0
  3  1  1  0  0  0  0
  4  2  1  0  0  0  0
  5  3  1  0  0  0  0
  6 11  2  0  0  0  0
  7 12  1  0  0  0  0
  8  7  2  0  0  0  0
  9  2  1  0  0  0  0
 10 13  1  0  0  0  0
 11 10  1  0  0  0  0
 12 10  2  0  0  0  0
 13  9  1  0  0  0  0
 14  1  2  0  0  0  0
 15  3  1  0  0  0  0
 16  7  1  0  0  0  0
 17  6  1  0  0  0  0
 18 13  2  0  0  0  0
 19  8  1  0  0  0  0
 20 15  1  0  0  0  0
 21 28  2  0  0  0  0
 22 21  1  0  0  0  0
 23  5  1  0  0  0  0
 24  4  1  0  0  0  0
 25 20  1  0  0  0  0
 26 20  2  0  0  0  0
 27 25  2  0  0  0  0
 28 26  1  0  0  0  0
 29 17  1  0  0  0  0
 30 17  1  0  0  0  0
 31 17  1  0  0  0  0
 32 16  1  0  0  0  0
 33 16  1  0  0  0  0
 34 16  1  0  0  0  0
 35 24  2  0  0  0  0
 36 23  2  0  0  0  0
  5  4  2  0  0  0  0
 36 35  1  0  0  0  0
 27 21  1  0  0  0  0
  8  6  1  0  0  0  0
M  END
> <#>
1189

> <PLATE>
LAT015

> <ROW>
E

> <COL>
10

> <COORD>
E10

> <LATID>
LAT015E10

> <Supplier>
Chembridge

> <Suplier_CAT#>
5665194

> <Name>
Novel

> <Concentration_(mM)>
2.5

> <IC50_(µM)>
>100

> <Yeast_Active?>
+

> <Pubchem_CID>
2859608

$$$$
