
  -ISIS-  08130814242D

 20 21  0  0  0  0  0  0  0  0999 V2000
    3.8417   -4.2292    0.0000 C   0  0  0  0  0  0  0  0  0  0  0  0
    3.8417   -3.3917    0.0000 C   0  0  0  0  0  0  0  0  0  0  0  0
    5.2792   -4.2250    0.0000 C   0  0  0  0  0  0  0  0  0  0  0  0
    6.0000   -4.6375    0.0000 C   0  0  0  0  0  0  0  0  0  0  0  0
    4.5625   -4.6417    0.0000 C   0  0  0  0  0  0  0  0  0  0  0  0
    3.1167   -2.9792    0.0000 C   0  0  0  0  0  0  0  0  0  0  0  0
    3.1167   -4.6417    0.0000 C   0  0  0  0  0  0  0  0  0  0  0  0
    6.7167   -4.2250    0.0000 C   0  0  0  0  0  0  0  0  0  0  0  0
    4.5625   -5.4667    0.0000 O   0  0  0  0  0  0  0  0  0  0  0  0
    7.4292   -4.6375    0.0000 C   0  0  0  0  0  0  0  0  0  0  0  0
    2.4042   -3.3917    0.0000 C   0  0  0  0  0  0  0  0  0  0  0  0
    4.5542   -2.9750    0.0000 O   0  0  0  0  0  0  0  0  0  0  0  0
    2.4042   -4.2292    0.0000 C   0  0  0  0  0  0  0  0  0  0  0  0
    7.4292   -5.4667    0.0000 F   0  0  0  0  0  0  0  0  0  0  0  0
    1.6875   -2.9792    0.0000 O   0  0  0  0  0  0  0  0  0  0  0  0
    6.7125   -3.4000    0.0000 C   0  0  0  0  0  0  0  0  0  0  0  0
    8.1500   -4.2250    0.0000 C   0  0  0  0  0  0  0  0  0  0  0  0
    0.9667   -3.4000    0.0000 C   0  0  0  0  0  0  0  0  0  0  0  0
    8.1417   -3.3917    0.0000 C   0  0  0  0  0  0  0  0  0  0  0  0
    7.4250   -2.9792    0.0000 C   0  0  0  0  0  0  0  0  0  0  0  0
  2  1  1  0  0  0  0
  3  5  1  0  0  0  0
  4  3  2  0  0  0  0
  5  1  1  0  0  0  0
  6  2  2  0  0  0  0
  7  1  2  0  0  0  0
  8  4  1  0  0  0  0
  9  5  2  0  0  0  0
 10  8  2  0  0  0  0
 11 13  2  0  0  0  0
 12  2  1  0  0  0  0
 13  7  1  0  0  0  0
 14 10  1  0  0  0  0
 15 11  1  0  0  0  0
 16  8  1  0  0  0  0
 17 10  1  0  0  0  0
 18 15  1  0  0  0  0
 19 20  1  0  0  0  0
 20 16  2  0  0  0  0
  6 11  1  0  0  0  0
 19 17  2  0  0  0  0
M  END
> <#>
1317

> <PLATE>
LAT017

> <ROW>
E

> <COL>
6

> <COORD>
E06

> <LATID>
LAT017E06

> <Supplier>
Chembridge

> <Suplier_CAT#>
7111651

> <Name>
Novel

> <Concentration_(mM)>
2.5

> <IC50_(µM)>
>100

> <Yeast_Active?>
-

> <Pubchem_CID>
2926583

$$$$
