
  -ISIS-  08130814242D

 24 26  0  0  0  0  0  0  0  0999 V2000
   -2.1833    0.2500    0.0000 C   0  0  0  0  0  0  0  0  0  0  0  0
   -2.6833    0.5500    0.0000 C   0  0  0  0  0  0  0  0  0  0  0  0
   -2.1833   -0.3042    0.0000 C   0  0  0  0  0  0  0  0  0  0  0  0
   -2.6833   -0.5875    0.0000 N   0  0  0  0  0  0  0  0  0  0  0  0
   -3.1625    0.2708    0.0000 C   0  0  0  0  0  0  0  0  0  0  0  0
   -3.1625   -0.3042    0.0000 C   0  0  0  0  0  0  0  0  0  0  0  0
   -1.1833    0.2125    0.0000 C   0  0  0  0  0  0  0  0  0  0  0  0
   -1.6625    0.5333    0.0000 C   0  0  0  0  0  0  0  0  0  0  0  0
   -0.6833    0.4708    0.0000 N   0  0  0  0  0  0  0  0  0  0  0  0
   -1.6625   -0.5667    0.0000 O   0  0  0  0  0  0  0  0  0  0  0  0
   -1.2208   -0.3500    0.0000 O   0  0  0  0  0  0  0  0  0  0  0  0
   -2.6833    1.1125    0.0000 O   0  0  0  0  0  0  0  0  0  0  0  0
   -0.2208    0.1500    0.0000 C   0  0  0  0  0  0  0  0  0  0  0  0
    0.7167   -0.5042    0.0000 C   0  0  0  0  0  0  0  0  0  0  0  0
   -3.6625    0.5500    0.0000 C   0  0  0  0  0  0  0  0  0  0  0  0
   -0.2833   -0.4292    0.0000 C   0  0  0  0  0  0  0  0  0  0  0  0
    0.3000    0.3958    0.0000 C   0  0  0  0  0  0  0  0  0  0  0  0
    0.7542    0.0500    0.0000 C   0  0  0  0  0  0  0  0  0  0  0  0
    0.2000   -0.7667    0.0000 C   0  0  0  0  0  0  0  0  0  0  0  0
    1.1042   -0.7792    0.0000 O   0  0  0  0  0  0  0  0  0  0  0  0
   -3.6625   -0.5875    0.0000 C   0  0  0  0  0  0  0  0  0  0  0  0
    1.1667   -1.3042    0.0000 C   0  0  0  0  0  0  0  0  0  0  0  0
   -4.1625    0.2500    0.0000 C   0  0  0  0  0  0  0  0  0  0  0  0
   -4.1625   -0.3042    0.0000 C   0  0  0  0  0  0  0  0  0  0  0  0
  2  1  2  0  0  0  0
  3  1  1  0  0  0  0
  4  3  1  0  0  0  0
  5  2  1  0  0  0  0
  6  4  1  0  0  0  0
  7  8  1  0  0  0  0
  8  1  1  0  0  0  0
  9  7  1  0  0  0  0
 10  3  2  0  0  0  0
 11  7  2  0  0  0  0
 12  2  1  0  0  0  0
 13  9  1  0  0  0  0
 14 18  2  0  0  0  0
 15  5  1  0  0  0  0
 16 13  1  0  0  0  0
 17 13  2  0  0  0  0
 18 17  1  0  0  0  0
 19 16  2  0  0  0  0
 20 14  1  0  0  0  0
 21  6  1  0  0  0  0
 22 20  1  0  0  0  0
 23 15  2  0  0  0  0
 24 21  2  0  0  0  0
  6  5  2  0  0  0  0
 24 23  1  0  0  0  0
 19 14  1  0  0  0  0
M  END
> <#>
2072

> <PLATE>
LAT026

> <ROW>
H

> <COL>
10

> <COORD>
H10

> <LATID>
LAT026H10

> <Supplier>
Chembridge

> <Suplier_CAT#>
5666041

> <Sec_Name>
208_F05

> <Concentration_(mM)>
2.5

> <IC50_(µM)>
inactive

> <Yeast_Active?>
-

> <Pubchem_CID>
NULL

$$$$
