
  -ISIS-  08130814242D

 17 19  0  0  0  0  0  0  0  0999 V2000
    2.4542   -2.2375    0.0000 O   0  0  0  0  0  0  0  0  0  0  0  0
    3.1042   -2.0292    0.0000 C   0  0  0  0  0  0  0  0  0  0  0  0
    4.3042   -2.0292    0.0000 C   0  0  0  0  0  0  0  0  0  0  0  0
    4.9042   -2.3667    0.0000 O   0  0  0  0  0  0  0  0  0  0  0  0
    3.1042   -1.3375    0.0000 C   0  0  0  0  0  0  0  0  0  0  0  0
    2.0500   -1.6792    0.0000 C   0  0  3  0  0  0  0  0  0  0  0  0
    3.7042   -2.3667    0.0000 C   0  0  0  0  0  0  0  0  0  0  0  0
    4.3042   -1.3375    0.0000 C   0  0  0  0  0  0  0  0  0  0  0  0
    5.5000   -2.0292    0.0000 C   0  0  0  0  0  0  0  0  0  0  0  0
    4.9042   -0.9875    0.0000 C   0  0  0  0  0  0  0  0  0  0  0  0
    2.4542   -1.1292    0.0000 C   0  0  0  0  0  0  0  0  0  0  0  0
    3.7042   -0.9875    0.0000 C   0  0  0  0  0  0  0  0  0  0  0  0
    5.5000   -1.3375    0.0000 C   0  0  0  0  0  0  0  0  0  0  0  0
    1.3542   -1.7000    0.0000 C   0  0  0  0  0  0  0  0  0  0  0  0
    6.0875   -2.3542    0.0000 O   0  0  0  0  0  0  0  0  0  0  0  0
    1.0000   -1.1000    0.0000 C   0  0  0  0  0  0  0  0  0  0  0  0
    0.8000   -2.2000    0.0000 C   0  0  0  0  0  0  0  0  0  0  0  0
  2  1  1  0  0  0  0
  3  7  1  0  0  0  0
  4  3  1  0  0  0  0
  5  2  1  0  0  0  0
  6  1  1  0  0  0  0
  7  2  2  0  0  0  0
  8  3  2  0  0  0  0
  9  4  1  0  0  0  0
 10  8  1  0  0  0  0
 11  6  1  0  0  0  0
 12  5  2  0  0  0  0
 13 10  2  0  0  0  0
 14  6  1  0  0  0  0
 15  9  2  0  0  0  0
 16 14  2  0  0  0  0
 17 14  1  0  0  0  0
  5 11  1  0  0  0  0
  8 12  1  0  0  0  0
  9 13  1  0  0  0  0
M  END
> <#>
850

> <PLATE>
LAT011

> <ROW>
B

> <COL>
8

> <COORD>
B08

> <LATID>
LAT011B08

> <Supplier>
Chembridge

> <Suplier_CAT#>
5648197

> <Name>
Novel

> <Sec_Name>
199_B07

> <Concentration_(mM)>
2.5

> <IC50_(µM)>
21

> <Yeast_Active?>
-

> <Pubchem_CID>
611672

$$$$
