
  -ISIS-  08130814242D

 17 18  0  0  0  0  0  0  0  0999 V2000
   -1.9500    2.1000    0.0000 C   0  0  0  0  0  0  0  0  0  0  0  0
   -1.1333    1.6333    0.0000 C   0  0  0  0  0  0  0  0  0  0  0  0
   -2.7833    1.6333    0.0000 C   0  0  0  0  0  0  0  0  0  0  0  0
   -0.3125    2.1000    0.0000 C   0  0  0  0  0  0  0  0  0  0  0  0
    0.5042    1.6333    0.0000 C   0  0  0  0  0  0  0  0  0  0  0  0
    1.3167    2.1000    0.0000 O   0  0  0  0  0  0  0  0  0  0  0  0
    0.7167    0.7125    0.0000 C   0  0  0  0  0  0  0  0  0  0  0  0
   -3.5958    2.1000    0.0000 C   0  0  0  0  0  0  0  0  0  0  0  0
   -1.9500    3.0333    0.0000 O   0  0  0  0  0  0  0  0  0  0  0  0
    2.0167    1.5208    0.0000 C   0  0  0  0  0  0  0  0  0  0  0  0
   -0.3125    3.0333    0.0000 O   0  0  0  0  0  0  0  0  0  0  0  0
    1.6542    0.6333    0.0000 C   0  0  0  0  0  0  0  0  0  0  0  0
   -3.5958    3.0458    0.0000 O   0  0  0  0  0  0  0  0  0  0  0  0
   -2.7833    0.6958    0.0000 C   0  0  0  0  0  0  0  0  0  0  0  0
   -4.4083    1.6333    0.0000 C   0  0  0  0  0  0  0  0  0  0  0  0
   -3.5958    0.2208    0.0000 C   0  0  0  0  0  0  0  0  0  0  0  0
   -4.4083    0.6958    0.0000 C   0  0  0  0  0  0  0  0  0  0  0  0
  2  1  1  0  0  0  0
  3  1  1  0  0  0  0
  4  2  1  0  0  0  0
  5  4  1  0  0  0  0
  6  5  1  0  0  0  0
  7  5  2  0  0  0  0
  8  3  1  0  0  0  0
  9  1  2  0  0  0  0
 10  6  1  0  0  0  0
 11  4  2  0  0  0  0
 12  7  1  0  0  0  0
 13  8  1  0  0  0  0
 14  3  2  0  0  0  0
 15  8  2  0  0  0  0
 16 14  1  0  0  0  0
 17 16  2  0  0  0  0
 17 15  1  0  0  0  0
 12 10  2  0  0  0  0
M  END
> <#>
1183

> <PLATE>
LAT015

> <ROW>
G

> <COL>
9

> <COORD>
G09

> <LATID>
LAT015G09

> <Supplier>
Chembridge

> <Suplier_CAT#>
5479987

> <Name>
Novel

> <Concentration_(mM)>
2.5

> <IC50_(µM)>
86

> <Yeast_Active?>
-

> <Pubchem_CID>
755073

$$$$
