
  -ISIS-  08130814242D

 19 20  0  0  0  0  0  0  0  0999 V2000
    5.1667   -6.1667    0.0000 C   0  0  0  0  0  0  0  0  0  0  0  0
    4.5167   -5.8000    0.0000 C   0  0  3  0  0  0  0  0  0  0  0  0
    6.4667   -6.1667    0.0000 N   0  0  0  0  0  0  0  0  0  0  0  0
    5.8167   -5.8000    0.0000 N   0  0  0  0  0  0  0  0  0  0  0  0
    5.1667   -6.9167    0.0000 O   0  0  0  0  0  0  0  0  0  0  0  0
    8.4042   -7.3000    0.0000 N   0  0  0  0  0  0  0  0  0  0  0  0
    3.8667   -6.1667    0.0000 C   0  0  0  0  0  0  0  0  0  0  0  0
    7.1167   -5.8000    0.0000 C   0  0  0  0  0  0  0  0  0  0  0  0
    7.7667   -6.1667    0.0000 C   0  0  0  0  0  0  0  0  0  0  0  0
    4.5167   -5.0500    0.0000 O   0  0  0  0  0  0  0  0  0  0  0  0
    7.7542   -6.9167    0.0000 C   0  0  0  0  0  0  0  0  0  0  0  0
    9.0542   -6.9167    0.0000 C   0  0  0  0  0  0  0  0  0  0  0  0
    8.4167   -5.8000    0.0000 C   0  0  0  0  0  0  0  0  0  0  0  0
    3.8667   -6.9167    0.0000 C   0  0  0  0  0  0  0  0  0  0  0  0
    3.2042   -5.8000    0.0000 C   0  0  0  0  0  0  0  0  0  0  0  0
    9.0542   -6.1667    0.0000 C   0  0  0  0  0  0  0  0  0  0  0  0
    2.5667   -6.1667    0.0000 C   0  0  0  0  0  0  0  0  0  0  0  0
    3.2042   -7.3000    0.0000 C   0  0  0  0  0  0  0  0  0  0  0  0
    2.5667   -6.9167    0.0000 C   0  0  0  0  0  0  0  0  0  0  0  0
  2  1  1  0  0  0  0
  3  4  1  0  0  0  0
  4  1  1  0  0  0  0
  5  1  2  0  0  0  0
  6 11  2  0  0  0  0
  7  2  1  0  0  0  0
  8  3  2  0  0  0  0
  9  8  1  0  0  0  0
 10  2  1  0  0  0  0
 11  9  1  0  0  0  0
 12 16  2  0  0  0  0
 13  9  2  0  0  0  0
 14  7  2  0  0  0  0
 15  7  1  0  0  0  0
 16 13  1  0  0  0  0
 17 15  2  0  0  0  0
 18 14  1  0  0  0  0
 19 17  1  0  0  0  0
 19 18  2  0  0  0  0
  6 12  1  0  0  0  0
M  END
> <#>
1877

> <PLATE>
LAT024

> <ROW>
E

> <COL>
6

> <COORD>
E06

> <LATID>
LAT024E06

> <Supplier>
Pharmeks

> <Suplier_CAT#>
PHAR055344

> <Name>
Novel

> <Concentration_(mM)>
2.5

> <IC50_(µM)>
inactive

> <Yeast_Active?>
-

> <Pubchem_CID>
948661

$$$$
