
  -ISIS-  08130814242D

 48 53  0  0  0  0  0  0  0  0999 V2000
    6.8792   -9.4542    0.0000 C   0  0  2  0  0  0  0  0  0  0  0  0
    7.8792   -8.5667    0.0000 C   0  0  1  0  0  0  0  0  0  0  0  0
    9.1792   -8.0000    0.0000 C   0  0  1  0  0  0  0  0  0  0  0  0
    8.3542   -7.9042    0.0000 C   0  0  1  0  0  0  0  0  0  0  0  0
    8.2042   -9.3250    0.0000 C   0  0  2  0  0  0  0  0  0  0  0  0
    5.4542  -11.1000    0.0000 C   0  0  1  0  0  0  0  0  0  0  0  0
    9.6667   -7.3375    0.0000 C   0  0  1  0  0  0  0  0  0  0  0  0
    6.1667   -9.8625    0.0000 C   0  0  2  0  0  0  0  0  0  0  0  0
    6.2792  -11.4875    0.0000 O   0  0  0  0  0  0  0  0  0  0  0  0
    7.5917   -9.8667    0.0000 C   0  0  2  0  0  0  0  0  0  0  0  0
    8.5292   -6.4875    0.0000 N   0  0  3  0  0  0  0  0  0  0  0  0
    7.0542   -8.6500    0.0000 C   0  0  0  0  0  0  0  0  0  0  0  0
    6.1667  -10.6875    0.0000 C   0  0  2  0  0  0  0  0  0  0  0  0
    9.3417   -6.5875    0.0000 C   0  0  1  0  0  0  0  0  0  0  0  0
    9.0167   -9.4125    0.0000 C   0  0  0  0  0  0  0  0  0  0  0  0
    9.5042   -8.7542    0.0000 C   0  0  2  0  0  0  0  0  0  0  0  0
    8.0292   -7.1500    0.0000 C   0  0  0  0  0  0  0  0  0  0  0  0
    4.7542  -10.6875    0.0000 C   0  0  1  0  0  0  0  0  0  0  0  0
    3.4667  -11.1000    0.0000 C   0  0  0  0  0  0  0  0  0  0  0  0
    4.0292  -11.1000    0.0000 O   0  0  0  0  0  0  0  0  0  0  0  0
    7.5917  -10.7000    0.0000 C   0  0  0  0  0  0  0  0  0  0  0  0
    5.4542   -9.4500    0.0000 C   0  0  0  0  0  0  0  0  0  0  0  0
    6.8792  -11.1042    0.0000 C   0  0  0  0  0  0  0  0  0  0  0  0
    3.0542  -10.4250    0.0000 C   0  0  0  0  0  0  0  0  0  0  0  0
    8.1917   -5.7292    0.0000 C   0  0  0  0  0  0  0  0  0  0  0  0
    9.8417   -5.9250    0.0000 C   0  0  0  0  0  0  0  0  0  0  0  0
    4.7542   -9.8625    0.0000 C   0  0  0  0  0  0  0  0  0  0  0  0
    3.0667  -11.7875    0.0000 O   0  0  0  0  0  0  0  0  0  0  0  0
    7.2917   -7.9750    0.0000 O   0  0  0  0  0  0  0  0  0  0  0  0
   10.4917   -7.3375    0.0000 O   0  0  0  0  0  0  0  0  0  0  0  0
    9.9292   -8.1125    0.0000 O   0  0  0  0  0  0  0  0  0  0  0  0
    8.4167  -10.1125    0.0000 O   0  0  0  0  0  0  0  0  0  0  0  0
    5.4542  -11.9250    0.0000 O   0  0  0  0  0  0  0  0  0  0  0  0
    2.2542  -10.4250    0.0000 C   0  0  0  0  0  0  0  0  0  0  0  0
   10.0792   -6.6167    0.0000 C   0  0  0  0  0  0  0  0  0  0  0  0
   10.3042   -8.9625    0.0000 O   0  0  0  0  0  0  0  0  0  0  0  0
    6.1542   -9.0542    0.0000 C   0  0  0  0  0  0  0  0  0  0  0  0
    9.5167   -5.1667    0.0000 C   0  0  0  0  0  0  0  0  0  0  0  0
    8.6917   -5.0667    0.0000 C   0  0  2  0  0  0  0  0  0  0  0  0
    3.4542   -9.7250    0.0000 C   0  0  0  0  0  0  0  0  0  0  0  0
    1.8542  -11.1125    0.0000 C   0  0  0  0  0  0  0  0  0  0  0  0
    8.4792   -4.2542    0.0000 C   0  0  0  0  0  0  0  0  0  0  0  0
    5.6292  -10.4875    0.0000 H   0  0  0  0  0  0  0  0  0  0  0  0
    5.2167   -6.9250    0.0000 S   0  0  3  0  0  0  0  0  0  0  0  0
    5.2167   -6.2667    0.0000 O   0  0  0  0  0  0  0  0  0  0  0  0
    4.5667   -6.9250    0.0000 O   0  0  0  0  0  0  0  0  0  0  0  0
    5.8667   -6.9250    0.0000 O   0  0  0  0  0  0  0  0  0  0  0  0
    5.2167   -7.5750    0.0000 O   0  0  0  0  0  0  0  0  0  0  0  0
  8  1  1  0  0  0  0
  1  9  1  6  0  0  0
 10  1  1  0  0  0  0
 11 17  1  0  0  0  0
 12  1  1  0  0  0  0
 13  8  1  0  0  0  0
 14  7  1  0  0  0  0
 15  5  1  0  0  0  0
 16 15  1  0  0  0  0
  4 17  1  6  0  0  0
 18  6  1  0  0  0  0
 19 20  1  0  0  0  0
 18 20  1  1  0  0  0
 10 21  1  6  0  0  0
 22  8  1  0  0  0  0
 23 21  1  0  0  0  0
 24 19  1  0  0  0  0
 25 11  1  0  0  0  0
 14 26  1  1  0  0  0
 27 22  1  0  0  0  0
 28 19  2  0  0  0  0
  2 29  1  6  0  0  0
  7 30  1  1  0  0  0
  3 31  1  6  0  0  0
  5 32  1  6  0  0  0
  6 33  1  1  0  0  0
 34 24  2  0  0  0  0
  7 35  1  6  0  0  0
 16 36  1  1  0  0  0
  8 37  1  1  0  0  0
 38 26  1  0  0  0  0
 39 25  1  0  0  0  0
 40 24  1  0  0  0  0
 41 34  1  0  0  0  0
 39 42  1  1  0  0  0
 13 43  1  1  0  0  0
  2  5  1  0  0  0  0
  6 13  1  0  0  0  0
 13 23  1  0  0  0  0
 27 18  1  0  0  0  0
  3 16  1  0  0  0  0
 11 14  1  0  0  0  0
 39 38  1  0  0  0  0
  2 12  1  0  0  0  0
  3  4  1  0  0  0  0
  4  2  1  0  0  0  0
  5 10  1  0  0  0  0
  6  9  1  6  0  0  0
  3  7  1  1  0  0  0
 45 44  2  0  0  0  0
 46 44  2  0  0  0  0
 47 44  1  0  0  0  0
 48 44  1  0  0  0  0
M  END
> <#>
43

> <PLATE>
LAT001

> <ROW>
C

> <COL>
7

> <COORD>
C07

> <LATID>
LAT001C07

> <Supplier>
Microsource

> <Suplier_CAT#>
00310300

> <Name>
Veratrine Sulfate

> <Concentration_(mM)>
2.5

> <IC50_(µM)>
inactive

> <Yeast_Active?>
-

> <Pubchem_CID>
5351532

> <Description>
Antihypertensive

$$$$
