
  -ISIS-  08130814242D

 25 27  0  0  0  0  0  0  0  0999 V2000
   -0.6708   -0.0875    0.0000 C   0  0  0  0  0  0  0  0  0  0  0  0
   -1.3708    0.3125    0.0000 C   0  0  0  0  0  0  0  0  0  0  0  0
   -2.0500   -0.0875    0.0000 C   0  0  0  0  0  0  0  0  0  0  0  0
    0.0500    0.3333    0.0000 C   0  0  0  0  0  0  0  0  0  0  0  0
    0.7500   -0.0875    0.0000 C   0  0  0  0  0  0  0  0  0  0  0  0
   -0.6708   -0.8875    0.0000 C   0  0  0  0  0  0  0  0  0  0  0  0
    3.5292   -0.0875    0.0000 C   0  0  0  0  0  0  0  0  0  0  0  0
    1.4500    0.3333    0.0000 C   0  0  0  0  0  0  0  0  0  0  0  0
    3.5292   -0.8875    0.0000 C   0  0  0  0  0  0  0  0  0  0  0  0
    2.8292    0.3333    0.0000 C   0  0  0  0  0  0  0  0  0  0  0  0
   -2.0500   -0.8875    0.0000 C   0  0  0  0  0  0  0  0  0  0  0  0
   -1.3708   -1.2875    0.0000 C   0  0  0  0  0  0  0  0  0  0  0  0
    0.0667    1.1333    0.0000 O   0  0  0  0  0  0  0  0  0  0  0  0
    2.1292   -0.0875    0.0000 C   0  0  0  0  0  0  0  0  0  0  0  0
    2.8292   -1.2875    0.0000 C   0  0  0  0  0  0  0  0  0  0  0  0
   -1.3708    1.1125    0.0000 O   0  0  0  0  0  0  0  0  0  0  0  0
    2.1292   -0.8875    0.0000 C   0  0  0  0  0  0  0  0  0  0  0  0
    4.2292    0.3333    0.0000 O   0  0  0  0  0  0  0  0  0  0  0  0
    4.2292   -1.2875    0.0000 O   0  0  0  0  0  0  0  0  0  0  0  0
   -2.7500    0.3125    0.0000 C   0  0  0  0  0  0  0  0  0  0  0  0
   -2.7500   -1.2875    0.0000 C   0  0  0  0  0  0  0  0  0  0  0  0
    4.9292   -0.0667    0.0000 C   0  0  0  0  0  0  0  0  0  0  0  0
    4.9292   -0.8875    0.0000 C   0  0  0  0  0  0  0  0  0  0  0  0
   -3.4500   -0.0875    0.0000 C   0  0  0  0  0  0  0  0  0  0  0  0
   -3.4500   -0.8875    0.0000 C   0  0  0  0  0  0  0  0  0  0  0  0
  2  1  1  0  0  0  0
  3  2  2  0  0  0  0
  4  1  1  0  0  0  0
  5  4  1  0  0  0  0
  6  1  2  0  0  0  0
  7 10  2  0  0  0  0
  8  5  2  0  0  0  0
  9 15  2  0  0  0  0
 10 14  1  0  0  0  0
 11 12  2  0  0  0  0
 12  6  1  0  0  0  0
 13  4  2  0  0  0  0
 14  8  1  0  0  0  0
 15 17  1  0  0  0  0
 16  2  1  0  0  0  0
 17 14  2  0  0  0  0
 18  7  1  0  0  0  0
 19  9  1  0  0  0  0
 20  3  1  0  0  0  0
 21 11  1  0  0  0  0
 22 18  1  0  0  0  0
 23 19  1  0  0  0  0
 24 20  2  0  0  0  0
 25 21  2  0  0  0  0
  3 11  1  0  0  0  0
 24 25  1  0  0  0  0
  7  9  1  0  0  0  0
M  END
> <#>
1233

> <PLATE>
LAT016

> <ROW>
A

> <COL>
6

> <COORD>
A06

> <LATID>
LAT016A06

> <Supplier>
Chembridge

> <Suplier_CAT#>
6162938

> <Name>
Novel

> <Concentration_(mM)>
2.5

> <IC50_(µM)>
inactive

> <Yeast_Active?>
-

> <Pubchem_CID>
2888728

$$$$
