
  -ISIS-  08130814242D

 20 21  0  0  0  0  0  0  0  0999 V2000
    2.9792   -2.9292    0.0000 C   0  0  0  0  0  0  0  0  0  0  0  0
    4.3750   -3.9167    0.0000 C   0  0  0  0  0  0  0  0  0  0  0  0
    2.6750   -3.9417    0.0000 C   0  0  0  0  0  0  0  0  0  0  0  0
    3.5292   -4.5417    0.0000 S   0  0  0  0  0  0  0  0  0  0  0  0
    4.0375   -2.9167    0.0000 C   0  0  0  0  0  0  0  0  0  0  0  0
    5.3667   -4.2292    0.0000 C   0  0  0  0  0  0  0  0  0  0  0  0
    2.3500   -2.0917    0.0000 C   0  0  0  0  0  0  0  0  0  0  0  0
    1.7250   -1.2542    0.0000 N   0  0  0  0  0  0  0  0  0  0  0  0
    7.3667   -4.3500    0.0000 N   0  0  0  0  0  0  0  0  0  0  0  0
    6.2875   -3.7917    0.0000 N   0  0  0  0  0  0  0  0  0  0  0  0
    5.3667   -5.2417    0.0000 O   0  0  0  0  0  0  0  0  0  0  0  0
    1.6792   -4.2792    0.0000 N   0  0  0  0  0  0  0  0  0  0  0  0
   11.4625   -3.0042    0.0000 N   0  0  0  0  0  0  0  0  0  0  0  0
    8.3792   -3.7042    0.0000 C   0  0  0  0  0  0  0  0  0  0  0  0
    9.3917   -3.0667    0.0000 C   0  0  0  0  0  0  0  0  0  0  0  0
    4.6417   -2.0667    0.0000 C   0  0  0  0  0  0  0  0  0  0  0  0
   10.4542   -3.6292    0.0000 C   0  0  0  0  0  0  0  0  0  0  0  0
   11.4167   -1.8042    0.0000 C   0  0  0  0  0  0  0  0  0  0  0  0
    9.3417   -1.8875    0.0000 C   0  0  0  0  0  0  0  0  0  0  0  0
   10.3625   -1.2417    0.0000 C   0  0  0  0  0  0  0  0  0  0  0  0
  2  5  2  0  0  0  0
  3  1  2  0  0  0  0
  4  3  1  0  0  0  0
  5  1  1  0  0  0  0
  6  2  1  0  0  0  0
  7  1  1  0  0  0  0
  8  7  3  0  0  0  0
  9 10  1  0  0  0  0
 10  6  1  0  0  0  0
 11  6  2  0  0  0  0
 12  3  1  0  0  0  0
 13 17  1  0  0  0  0
 14  9  2  0  0  0  0
 15 14  1  0  0  0  0
 16  5  1  0  0  0  0
 17 15  2  0  0  0  0
 18 20  1  0  0  0  0
 19 15  1  0  0  0  0
 20 19  2  0  0  0  0
  4  2  1  0  0  0  0
 13 18  2  0  0  0  0
M  END
> <#>
1642

> <PLATE>
LAT021

> <ROW>
B

> <COL>
7

> <COORD>
B07

> <LATID>
LAT021B07

> <Supplier>
Chembridge

> <Suplier_CAT#>
5870987

> <Name>
Novel

> <Concentration_(mM)>
2.5

> <IC50_(µM)>
inactive

> <Yeast_Active?>
-

> <Pubchem_CID>
876648

$$$$
