
  -ISIS-  08130814242D

 28 32  0  0  0  0  0  0  0  0999 V2000
   -1.4833   -1.6042    0.0000 C   0  0  3  0  0  0  0  0  0  0  0  0
    1.0000   -1.3667    0.0000 C   0  0  0  0  0  0  0  0  0  0  0  0
    0.1375   -0.9500    0.0000 N   0  0  0  0  0  0  0  0  0  0  0  0
   -0.5208   -1.6500    0.0000 C   0  0  0  0  0  0  0  0  0  0  0  0
    1.8792   -1.0292    0.0000 N   0  0  0  0  0  0  0  0  0  0  0  0
    2.0375   -0.0875    0.0000 C   0  0  0  0  0  0  0  0  0  0  0  0
    0.8542   -2.3292    0.0000 S   0  0  0  0  0  0  0  0  0  0  0  0
    2.9167    0.2500    0.0000 C   0  0  0  0  0  0  0  0  0  0  0  0
   -0.1000   -2.4875    0.0000 C   0  0  0  0  0  0  0  0  0  0  0  0
   -2.4208   -1.8042    0.0000 C   0  0  0  0  0  0  0  0  0  0  0  0
   -2.2000   -2.2500    0.0000 C   0  0  0  0  0  0  0  0  0  0  0  0
   -1.2458   -0.4875    0.0000 C   0  0  0  0  0  0  0  0  0  0  0  0
    3.0542    1.1958    0.0000 N   0  0  0  0  0  0  0  0  0  0  0  0
   -2.8458   -1.5292    0.0000 C   0  0  3  0  0  0  0  0  0  0  0  0
   -3.0625   -1.0875    0.0000 C   0  0  3  0  0  0  0  0  0  0  0  0
   -2.0000    0.2500    0.0000 C   0  0  3  0  0  0  0  0  0  0  0  0
    1.3000    0.5125    0.0000 O   0  0  0  0  0  0  0  0  0  0  0  0
    3.3792    3.1333    0.0000 N   0  0  0  0  0  0  0  0  0  0  0  0
    3.6542   -0.3292    0.0000 O   0  0  0  0  0  0  0  0  0  0  0  0
   -2.8625   -0.1667    0.0000 C   0  0  0  0  0  0  0  0  0  0  0  0
   -2.7208   -0.3667    0.0000 C   0  0  0  0  0  0  0  0  0  0  0  0
   -3.7625   -1.7292    0.0000 C   0  0  0  0  0  0  0  0  0  0  0  0
    3.9542    1.5500    0.0000 C   0  0  0  0  0  0  0  0  0  0  0  0
    4.1167    2.5208    0.0000 C   0  0  0  0  0  0  0  0  0  0  0  0
    3.5375    4.0667    0.0000 C   0  0  0  0  0  0  0  0  0  0  0  0
    5.0167    2.8500    0.0000 C   0  0  0  0  0  0  0  0  0  0  0  0
    4.4375    4.4042    0.0000 C   0  0  0  0  0  0  0  0  0  0  0  0
    5.1792    3.7708    0.0000 C   0  0  0  0  0  0  0  0  0  0  0  0
  2  3  2  0  0  0  0
  3  4  1  0  0  0  0
  4  1  1  0  0  0  0
  5  2  1  0  0  0  0
  6  5  1  0  0  0  0
  7  9  1  0  0  0  0
  8  6  1  0  0  0  0
  9  4  2  0  0  0  0
 10  1  1  0  0  0  0
 11  1  1  0  0  0  0
 12  1  1  0  0  0  0
 13  8  1  0  0  0  0
 14 11  1  0  0  0  0
 15 10  1  0  0  0  0
 16 12  1  0  0  0  0
 17  6  2  0  0  0  0
 18 24  1  0  0  0  0
 19  8  2  0  0  0  0
 20 16  1  0  0  0  0
 21 16  1  0  0  0  0
 22 14  1  0  0  0  0
 23 13  1  0  0  0  0
 24 23  1  0  0  0  0
 25 18  2  0  0  0  0
 26 24  2  0  0  0  0
 27 28  2  0  0  0  0
 28 26  1  0  0  0  0
 14 21  1  0  0  0  0
 15 20  1  0  0  0  0
 15 22  1  0  0  0  0
  7  2  1  0  0  0  0
 27 25  1  0  0  0  0
M  END
> <#>
1407

> <PLATE>
LAT018

> <ROW>
G

> <COL>
7

> <COORD>
G07

> <LATID>
LAT018G07

> <Supplier>
Chembridge

> <Suplier_CAT#>
5813811

> <Name>
Novel

> <Concentration_(mM)>
2.5

> <IC50_(µM)>
>100

> <Yeast_Active?>
-

> <Pubchem_CID>
2870880

$$$$
