
  -ISIS-  08130814242D

 17 19  0  0  0  0  0  0  0  0999 V2000
   -0.1958    0.4125    0.0000 C   0  0  0  0  0  0  0  0  0  0  0  0
    0.7792   -0.1375    0.0000 C   0  0  0  0  0  0  0  0  0  0  0  0
   -1.1708   -0.1375    0.0000 C   0  0  0  0  0  0  0  0  0  0  0  0
   -0.1958   -1.8042    0.0000 O   0  0  0  0  0  0  0  0  0  0  0  0
   -1.1708   -1.2500    0.0000 C   0  0  0  0  0  0  0  0  0  0  0  0
    0.7792   -1.2500    0.0000 C   0  0  0  0  0  0  0  0  0  0  0  0
   -2.1458    0.4125    0.0000 C   0  0  0  0  0  0  0  0  0  0  0  0
    1.7500    0.4125    0.0000 C   0  0  0  0  0  0  0  0  0  0  0  0
   -0.1958    1.5208    0.0000 O   0  0  0  0  0  0  0  0  0  0  0  0
    1.7500   -1.8042    0.0000 C   0  0  0  0  0  0  0  0  0  0  0  0
   -2.1458   -1.8042    0.0000 C   0  0  0  0  0  0  0  0  0  0  0  0
    2.7167   -0.1375    0.0000 C   0  0  0  0  0  0  0  0  0  0  0  0
   -3.1125   -0.1375    0.0000 C   0  0  0  0  0  0  0  0  0  0  0  0
   -3.1125   -1.2500    0.0000 C   0  0  0  0  0  0  0  0  0  0  0  0
    2.7167   -1.2500    0.0000 C   0  0  0  0  0  0  0  0  0  0  0  0
    3.7000    0.4125    0.0000 O   0  0  0  0  0  0  0  0  0  0  0  0
   -4.0958    0.4125    0.0000 O   0  0  0  0  0  0  0  0  0  0  0  0
  2  1  1  0  0  0  0
  3  1  1  0  0  0  0
  4  5  1  0  0  0  0
  5  3  2  0  0  0  0
  6  2  2  0  0  0  0
  7  3  1  0  0  0  0
  8  2  1  0  0  0  0
  9  1  2  0  0  0  0
 10  6  1  0  0  0  0
 11  5  1  0  0  0  0
 12  8  2  0  0  0  0
 13  7  2  0  0  0  0
 14 13  1  0  0  0  0
 15 12  1  0  0  0  0
 16 12  1  0  0  0  0
 17 13  1  0  0  0  0
  6  4  1  0  0  0  0
 11 14  2  0  0  0  0
 15 10  2  0  0  0  0
M  END
> <#>
1133

> <PLATE>
LAT015

> <ROW>
E

> <COL>
3

> <COORD>
E03

> <LATID>
LAT015E03

> <Supplier>
Chembridge

> <Suplier_CAT#>
5235224

> <Name>
Novel

> <Concentration_(mM)>
2.5

> <IC50_(µM)>
>100

> <Yeast_Active?>
-

> <Pubchem_CID>
2836049

$$$$
