
  -ISIS-  08130814242D

 18 18  0  0  0  0  0  0  0  0999 V2000
   -1.8125   -1.0792    0.0000 N   0  0  3  0  0  0  0  0  0  0  0  0
   -1.3000   -0.7875    0.0000 C   0  0  0  0  0  0  0  0  0  0  0  0
   -2.3208   -0.7875    0.0000 C   0  0  0  0  0  0  0  0  0  0  0  0
   -0.7958   -1.0792    0.0000 N   0  0  3  0  0  0  0  0  0  0  0  0
   -1.3000   -0.2000    0.0000 S   0  0  0  0  0  0  0  0  0  0  0  0
   -2.3208   -0.2000    0.0000 O   0  0  0  0  0  0  0  0  0  0  0  0
   -2.8458   -1.0792    0.0000 C   0  0  3  0  0  0  0  0  0  0  0  0
   -0.2708   -0.7875    0.0000 C   0  0  0  0  0  0  0  0  0  0  0  0
    0.7375   -0.2000    0.0000 C   0  0  0  0  0  0  0  0  0  0  0  0
    0.2292   -1.0792    0.0000 C   0  0  0  0  0  0  0  0  0  0  0  0
   -0.2708   -0.2000    0.0000 C   0  0  0  0  0  0  0  0  0  0  0  0
    0.2292    0.0958    0.0000 C   0  0  0  0  0  0  0  0  0  0  0  0
    0.7375   -0.7875    0.0000 C   0  0  0  0  0  0  0  0  0  0  0  0
   -3.3500   -0.7875    0.0000 C   0  0  0  0  0  0  0  0  0  0  0  0
   -2.8458   -1.6667    0.0000 C   0  0  0  0  0  0  0  0  0  0  0  0
    1.2500    0.0958    0.0000 C   0  0  0  0  0  0  0  0  0  0  0  0
   -0.7958   -1.6667    0.0000 H   0  0  0  0  0  0  0  0  0  0  0  0
   -1.8125   -1.6667    0.0000 H   0  0  0  0  0  0  0  0  0  0  0  0
  2  1  1  0  0  0  0
  3  1  1  0  0  0  0
  4  2  1  0  0  0  0
  5  2  2  0  0  0  0
  6  3  2  0  0  0  0
  7  3  1  0  0  0  0
  8  4  1  0  0  0  0
  9 12  2  0  0  0  0
 10  8  1  0  0  0  0
 11  8  2  0  0  0  0
 12 11  1  0  0  0  0
 13 10  2  0  0  0  0
 14  7  1  0  0  0  0
 15  7  1  0  0  0  0
 16  9  1  0  0  0  0
 17  4  1  0  0  0  0
 18  1  1  0  0  0  0
 13  9  1  0  0  0  0
M  END
> <#>
1808

> <PLATE>
LAT023

> <ROW>
H

> <COL>
7

> <COORD>
H07

> <LATID>
LAT023H07

> <Supplier>
Chembridge

> <Suplier_CAT#>
5631978

> <Name>
Novel

> <Sec_Name>
192_B07

> <Concentration_(mM)>
2.5

> <IC50_(µM)>
20

> <Yeast_Active?>
-

> <Pubchem_CID>
872791

$$$$
