
  -ISIS-  08130814242D

 32 35  0  0  0  0  0  0  0  0999 V2000
    0.0500    0.5625    0.0000 N   0  0  3  0  0  0  0  0  0  0  0  0
    0.0500   -0.1500    0.0000 C   0  0  0  0  0  0  0  0  0  0  0  0
    1.2500    0.5625    0.0000 C   0  0  0  0  0  0  0  0  0  0  0  0
    0.6500    0.9125    0.0000 C   0  0  3  0  0  0  0  0  0  0  0  0
   -0.6458    0.7708    0.0000 C   0  0  0  0  0  0  0  0  0  0  0  0
    0.6500   -0.4667    0.0000 N   0  0  0  0  0  0  0  0  0  0  0  0
   -1.0458    0.2458    0.0000 C   0  0  0  0  0  0  0  0  0  0  0  0
    1.2500   -0.1500    0.0000 C   0  0  0  0  0  0  0  0  0  0  0  0
   -0.6458   -0.3500    0.0000 S   0  0  0  0  0  0  0  0  0  0  0  0
    0.6500    1.6000    0.0000 C   0  0  0  0  0  0  0  0  0  0  0  0
   -1.7333    0.3000    0.0000 C   0  0  0  0  0  0  0  0  0  0  0  0
    1.8500    0.9208    0.0000 C   0  0  0  0  0  0  0  0  0  0  0  0
   -2.1208   -0.2500    0.0000 C   0  0  0  0  0  0  0  0  0  0  0  0
    0.0542    1.9583    0.0000 C   0  0  0  0  0  0  0  0  0  0  0  0
   -1.8500   -0.8542    0.0000 S   0  0  0  0  0  0  0  0  0  0  0  0
    0.0542    2.6333    0.0000 C   0  0  0  0  0  0  0  0  0  0  0  0
   -0.8625    1.4125    0.0000 O   0  0  0  0  0  0  0  0  0  0  0  0
    1.2500    1.9583    0.0000 C   0  0  0  0  0  0  0  0  0  0  0  0
    0.6500    2.9833    0.0000 C   0  0  0  0  0  0  0  0  0  0  0  0
   -2.4125   -1.3167    0.0000 C   0  0  0  0  0  0  0  0  0  0  0  0
    1.8500    1.6333    0.0000 O   0  0  0  0  0  0  0  0  0  0  0  0
   -2.8500   -0.3000    0.0000 C   0  0  0  0  0  0  0  0  0  0  0  0
   -3.0000   -0.9500    0.0000 C   0  0  0  0  0  0  0  0  0  0  0  0
    1.2500    2.6333    0.0000 C   0  0  0  0  0  0  0  0  0  0  0  0
    2.4042    0.5458    0.0000 O   0  0  0  0  0  0  0  0  0  0  0  0
    1.8167   -0.5000    0.0000 C   0  0  0  0  0  0  0  0  0  0  0  0
   -0.5333    2.9625    0.0000 O   0  0  0  0  0  0  0  0  0  0  0  0
    0.6500    3.6708    0.0000 O   0  0  0  0  0  0  0  0  0  0  0  0
    3.0542    0.8125    0.0000 C   0  0  0  0  0  0  0  0  0  0  0  0
   -0.5333    3.6500    0.0000 C   0  0  0  0  0  0  0  0  0  0  0  0
    1.2500    4.0000    0.0000 C   0  0  0  0  0  0  0  0  0  0  0  0
    3.6500    0.3958    0.0000 C   0  0  0  0  0  0  0  0  0  0  0  0
  2  1  1  0  0  0  0
  3  4  1  0  0  0  0
  4  1  1  0  0  0  0
  5  1  1  0  0  0  0
  6  2  2  0  0  0  0
  7  5  1  0  0  0  0
  8  3  2  0  0  0  0
  9  2  1  0  0  0  0
 10  4  1  0  0  0  0
 11  7  2  0  0  0  0
 12  3  1  0  0  0  0
 13 11  1  0  0  0  0
 14 10  1  0  0  0  0
 15 13  1  0  0  0  0
 16 14  2  0  0  0  0
 17  5  2  0  0  0  0
 18 10  2  0  0  0  0
 19 24  2  0  0  0  0
 20 15  1  0  0  0  0
 21 12  2  0  0  0  0
 22 13  2  0  0  0  0
 23 22  1  0  0  0  0
 24 18  1  0  0  0  0
 25 12  1  0  0  0  0
 26  8  1  0  0  0  0
 27 16  1  0  0  0  0
 28 19  1  0  0  0  0
 29 25  1  0  0  0  0
 30 27  1  0  0  0  0
 31 28  1  0  0  0  0
 32 29  1  0  0  0  0
  7  9  1  0  0  0  0
  8  6  1  0  0  0  0
 19 16  1  0  0  0  0
 23 20  2  0  0  0  0
M  END
> <#>
2063

> <PLATE>
LAT026

> <ROW>
G

> <COL>
9

> <COORD>
G09

> <LATID>
LAT026G09

> <Supplier>
Chembridge

> <Suplier_CAT#>
5648951

> <Sec_Name>
201_H07

> <Concentration_(mM)>
2.5

> <IC50_(µM)>
>100

> <Yeast_Active?>
-

> <Pubchem_CID>
1003011

$$$$
