
  -ISIS-  08130814242D

 10 10  0  0  0  0  0  0  0  0999 V2000
   -1.6375   -1.1675    0.0000 C   0  0  0  0  0  0  0  0  0  0  0  0
   -2.2625   -0.0850    0.0000 C   0  0  3  0  0  0  0  0  0  0  0  0
   -1.6375    0.9975    0.0000 C   0  0  3  0  0  0  0  0  0  0  0  0
   -0.3875    0.9975    0.0000 C   0  0  3  0  0  0  0  0  0  0  0  0
    0.2375   -0.0850    0.0000 C   0  0  3  0  0  0  0  0  0  0  0  0
   -0.3875   -1.1675    0.0000 O   0  0  0  0  0  0  0  0  0  0  0  0
    1.4875   -0.0850    0.0000 O   0  0  0  0  0  0  0  0  0  0  0  0
    0.2375    2.0800    0.0000 O   0  0  0  0  0  0  0  0  0  0  0  0
   -2.2625    2.0800    0.0000 O   0  0  0  0  0  0  0  0  0  0  0  0
   -3.5125   -0.0850    0.0000 O   0  0  0  0  0  0  0  0  0  0  0  0
  1  2  1  0  0  0  0
  2  3  1  0  0  0  0
  3  4  1  0  0  0  0
  4  5  1  0  0  0  0
  5  6  1  0  0  0  0
  1  6  1  0  0  0  0
  5  7  1  0  0  0  0
  4  8  1  0  0  0  0
  3  9  1  0  0  0  0
  2 10  1  0  0  0  0
M  END
> <#>
409

> <PLATE>
LAT006

> <ROW>
A

> <COL>
3

> <COORD>
A03

> <LATID>
LAT006A03

> <Supplier>
Sigma

> <Suplier_CAT#>
A-3256

> <Name>
L-(+)-Arabinose

> <Concentration_(mM)>
2.5

> <IC50_(µM)>
inactive

> <Yeast_Active?>
-

> <Pubchem_CID>
229

$$$$
