
  -ISIS-  08130814242D

 26 30  0  0  0  0  0  0  0  0999 V2000
   -1.1708   -0.2667    0.0000 C   0  0  0  0  0  0  0  0  0  0  0  0
   -1.1708   -1.0875    0.0000 C   0  0  0  0  0  0  0  0  0  0  0  0
   -0.4500    0.1500    0.0000 C   0  0  0  0  0  0  0  0  0  0  0  0
   -1.8708    0.1500    0.0000 C   0  0  0  0  0  0  0  0  0  0  0  0
   -1.8708   -1.5042    0.0000 C   0  0  0  0  0  0  0  0  0  0  0  0
   -0.4708    0.9708    0.0000 N   0  0  0  0  0  0  0  0  0  0  0  0
    0.2667   -0.2667    0.0000 C   0  0  0  0  0  0  0  0  0  0  0  0
   -2.5958   -1.0875    0.0000 C   0  0  0  0  0  0  0  0  0  0  0  0
   -2.5958   -0.2667    0.0000 C   0  0  0  0  0  0  0  0  0  0  0  0
   -0.4500   -1.5042    0.0000 C   0  0  0  0  0  0  0  0  0  0  0  0
    0.9875    0.1708    0.0000 O   0  0  0  0  0  0  0  0  0  0  0  0
    0.2875   -1.0875    0.0000 C   0  0  0  0  0  0  0  0  0  0  0  0
    0.9667    0.9958    0.0000 C   0  0  0  0  0  0  0  0  0  0  0  0
    0.2500    1.3958    0.0000 C   0  0  0  0  0  0  0  0  0  0  0  0
   -1.8708    0.9958    0.0000 O   0  0  0  0  0  0  0  0  0  0  0  0
   -1.8708   -2.3292    0.0000 O   0  0  0  0  0  0  0  0  0  0  0  0
    1.6667    1.4333    0.0000 C   0  0  0  0  0  0  0  0  0  0  0  0
    0.2292    2.2125    0.0000 C   0  0  0  0  0  0  0  0  0  0  0  0
   -0.4708   -2.3292    0.0000 O   0  0  0  0  0  0  0  0  0  0  0  0
    1.6292    2.2500    0.0000 C   0  0  0  0  0  0  0  0  0  0  0  0
    0.9292    2.6333    0.0000 C   0  0  0  0  0  0  0  0  0  0  0  0
   -3.3125    0.1500    0.0000 C   0  0  0  0  0  0  0  0  0  0  0  0
   -3.3125   -1.5042    0.0000 C   0  0  0  0  0  0  0  0  0  0  0  0
    2.2667    2.6458    0.0000 C   0  0  0  0  0  0  0  0  0  0  0  0
   -4.0333   -1.0875    0.0000 C   0  0  0  0  0  0  0  0  0  0  0  0
   -4.0333   -0.2667    0.0000 C   0  0  0  0  0  0  0  0  0  0  0  0
  2  1  2  0  0  0  0
  3  1  1  0  0  0  0
  4  1  1  0  0  0  0
  5  2  1  0  0  0  0
  6  3  1  0  0  0  0
  7  3  2  0  0  0  0
  8  9  2  0  0  0  0
  9  4  1  0  0  0  0
 10  2  1  0  0  0  0
 11  7  1  0  0  0  0
 12  7  1  0  0  0  0
 13 11  1  0  0  0  0
 14  6  1  0  0  0  0
 15  4  2  0  0  0  0
 16  5  2  0  0  0  0
 17 13  2  0  0  0  0
 18 14  2  0  0  0  0
 19 10  1  0  0  0  0
 20 17  1  0  0  0  0
 21 18  1  0  0  0  0
 22  9  1  0  0  0  0
 23  8  1  0  0  0  0
 24 20  1  0  0  0  0
 25 26  1  0  0  0  0
 26 22  2  0  0  0  0
  5  8  1  0  0  0  0
 10 12  2  0  0  0  0
 13 14  1  0  0  0  0
 25 23  2  0  0  0  0
 20 21  2  0  0  0  0
M  END
> <#>
1149

> <PLATE>
LAT015

> <ROW>
E

> <COL>
5

> <COORD>
E05

> <LATID>
LAT015E05

> <Supplier>
Chembridge

> <Suplier_CAT#>
5470742

> <Name>
Novel

> <Sec_Name>
135_A03

> <Concentration_(mM)>
2.5

> <IC50_(µM)>
inactive

> <Yeast_Active?>
-

> <Pubchem_CID>
NULL

$$$$
