
  -ISIS-  08130814242D

 16 16  0  0  0  0  0  0  0  0999 V2000
    0.2792    0.4458    0.0000 N   0  0  0  0  0  0  0  0  0  0  0  0
    3.5000   -1.4542    0.0000 C   0  0  0  0  0  0  0  0  0  0  0  0
   -4.0625    0.4458    0.0000 C   0  0  0  0  0  0  0  0  0  0  0  0
   -2.9833    1.0625    0.0000 N   0  0  0  0  0  0  0  0  0  0  0  0
    2.4375   -0.8375    0.0000 N   0  0  0  0  0  0  0  0  0  0  0  0
    3.5000   -2.7000    0.0000 O   0  0  0  0  0  0  0  0  0  0  0  0
   -5.1458    1.0625    0.0000 O   0  0  0  0  0  0  0  0  0  0  0  0
   -0.8208    1.0625    0.0000 C   0  0  0  0  0  0  0  0  0  0  0  0
    1.3375    1.0625    0.0000 C   0  0  0  0  0  0  0  0  0  0  0  0
    2.4375    0.4208    0.0000 C   0  0  0  0  0  0  0  0  0  0  0  0
   -1.9083    0.4208    0.0000 C   0  0  0  0  0  0  0  0  0  0  0  0
    0.2792    2.9208    0.0000 C   0  0  0  0  0  0  0  0  0  0  0  0
    4.5792   -0.8375    0.0000 C   0  0  0  0  0  0  0  0  0  0  0  0
   -4.0833   -0.8167    0.0000 C   0  0  0  0  0  0  0  0  0  0  0  0
    1.3375    2.3000    0.0000 C   0  0  0  0  0  0  0  0  0  0  0  0
   -0.8208    2.3000    0.0000 C   0  0  0  0  0  0  0  0  0  0  0  0
  2  5  1  0  0  0  0
  3  4  1  0  0  0  0
  4 11  1  0  0  0  0
  5 10  1  0  0  0  0
  6  2  2  0  0  0  0
  7  3  2  0  0  0  0
  8  1  2  0  0  0  0
  9  1  1  0  0  0  0
 10  9  1  0  0  0  0
 11  8  1  0  0  0  0
 12 15  1  0  0  0  0
 13  2  1  0  0  0  0
 14  3  1  0  0  0  0
 15  9  2  0  0  0  0
 16  8  1  0  0  0  0
 12 16  2  0  0  0  0
M  END
> <#>
1400

> <PLATE>
LAT018

> <ROW>
H

> <COL>
6

> <COORD>
H06

> <LATID>
LAT018H06

> <Supplier>
Chembridge

> <Suplier_CAT#>
5219860

> <Name>
Novel

> <Concentration_(mM)>
2.5

> <IC50_(µM)>
inactive

> <Yeast_Active?>
-

> <Pubchem_CID>
49857

$$$$
