
  -ISIS-  08130814242D

 22 23  0  0  0  0  0  0  0  0999 V2000
    2.2375   -1.3792    0.0000 C   0  0  0  0  0  0  0  0  0  0  0  0
    1.5875   -1.0000    0.0000 C   0  0  3  0  0  0  0  0  0  0  0  0
    3.5375   -1.3792    0.0000 N   0  0  0  0  0  0  0  0  0  0  0  0
    6.1375   -1.3792    0.0000 C   0  0  0  0  0  0  0  0  0  0  0  0
    2.8875   -1.0042    0.0000 N   0  0  0  0  0  0  0  0  0  0  0  0
    6.1375   -2.1292    0.0000 C   0  0  0  0  0  0  0  0  0  0  0  0
    2.2375   -2.1292    0.0000 O   0  0  0  0  0  0  0  0  0  0  0  0
    5.4875   -1.0042    0.0000 C   0  0  0  0  0  0  0  0  0  0  0  0
    0.9375   -1.3792    0.0000 C   0  0  0  0  0  0  0  0  0  0  0  0
    5.4875   -2.5042    0.0000 C   0  0  0  0  0  0  0  0  0  0  0  0
    4.1875   -1.0042    0.0000 C   0  0  0  0  0  0  0  0  0  0  0  0
    4.8375   -1.3792    0.0000 C   0  0  0  0  0  0  0  0  0  0  0  0
    6.7875   -1.0042    0.0000 Cl  0  0  0  0  0  0  0  0  0  0  0  0
    1.5875   -0.2500    0.0000 O   0  0  0  0  0  0  0  0  0  0  0  0
    4.8375   -2.1292    0.0000 C   0  0  0  0  0  0  0  0  0  0  0  0
    6.7792   -2.5042    0.0000 O   0  0  0  0  0  0  0  0  0  0  0  0
    0.2875   -1.0000    0.0000 C   0  0  0  0  0  0  0  0  0  0  0  0
    0.9375   -2.1292    0.0000 C   0  0  0  0  0  0  0  0  0  0  0  0
    6.7792   -3.2542    0.0000 C   0  0  0  0  0  0  0  0  0  0  0  0
    0.2875   -2.5042    0.0000 C   0  0  0  0  0  0  0  0  0  0  0  0
   -0.3500   -1.3792    0.0000 C   0  0  0  0  0  0  0  0  0  0  0  0
   -0.3500   -2.1292    0.0000 C   0  0  0  0  0  0  0  0  0  0  0  0
  2  1  1  0  0  0  0
  3  5  1  0  0  0  0
  4  8  1  0  0  0  0
  5  1  1  0  0  0  0
  6 10  1  0  0  0  0
  7  1  2  0  0  0  0
  8 12  2  0  0  0  0
  9  2  1  0  0  0  0
 10 15  2  0  0  0  0
 11  3  2  0  0  0  0
 12 11  1  0  0  0  0
 13  4  1  0  0  0  0
 14  2  1  0  0  0  0
 15 12  1  0  0  0  0
 16  6  1  0  0  0  0
 17  9  1  0  0  0  0
 18  9  2  0  0  0  0
 19 16  1  0  0  0  0
 20 18  1  0  0  0  0
 21 17  2  0  0  0  0
 22 20  2  0  0  0  0
 22 21  1  0  0  0  0
  4  6  2  0  0  0  0
M  END
> <#>
1061

> <PLATE>
LAT014

> <ROW>
E

> <COL>
4

> <COORD>
E04

> <LATID>
LAT014E04

> <Supplier>
Chembridge

> <Suplier_CAT#>
5534171

> <Name>
Novel

> <Concentration_(mM)>
2.5

> <IC50_(µM)>
>100

> <Yeast_Active?>
-

> <Pubchem_CID>
871159

$$$$
