
  -ISIS-  08130814242D

 35 38  0  0  0  0  0  0  0  0999 V2000
   -2.9458   -0.1667    0.0000 C   0  0  0  0  0  0  0  0  0  0  0  0
   -3.5208    0.1625    0.0000 C   0  0  0  0  0  0  0  0  0  0  0  0
    0.5667   -0.1542    0.0000 C   0  0  0  0  0  0  0  0  0  0  0  0
   -4.0958   -0.1667    0.0000 C   0  0  0  0  0  0  0  0  0  0  0  0
   -2.3458    0.1708    0.0000 C   0  0  0  0  0  0  0  0  0  0  0  0
   -1.7708   -0.1542    0.0000 C   0  0  0  0  0  0  0  0  0  0  0  0
   -2.9458   -0.8375    0.0000 C   0  0  0  0  0  0  0  0  0  0  0  0
   -1.1958    0.1708    0.0000 C   0  0  0  0  0  0  0  0  0  0  0  0
    4.6542    0.8333    0.0000 C   0  0  0  0  0  0  0  0  0  0  0  0
    4.0875    1.1833    0.0000 N   0  0  0  0  0  0  0  0  0  0  0  0
    0.5667   -0.8292    0.0000 C   0  0  0  0  0  0  0  0  0  0  0  0
   -0.0208    0.1708    0.0000 C   0  0  0  0  0  0  0  0  0  0  0  0
    1.1500    0.1708    0.0000 C   0  0  0  0  0  0  0  0  0  0  0  0
   -4.0958   -0.8375    0.0000 C   0  0  0  0  0  0  0  0  0  0  0  0
   -3.5208   -1.1792    0.0000 C   0  0  0  0  0  0  0  0  0  0  0  0
   -2.3458    0.8458    0.0000 O   0  0  0  0  0  0  0  0  0  0  0  0
    4.6292    0.1625    0.0000 O   0  0  0  0  0  0  0  0  0  0  0  0
   -0.6000   -0.1542    0.0000 C   0  0  0  0  0  0  0  0  0  0  0  0
   -0.0208   -1.1542    0.0000 C   0  0  0  0  0  0  0  0  0  0  0  0
    1.7375   -0.1542    0.0000 O   0  0  0  0  0  0  0  0  0  0  0  0
   -3.5208    0.8333    0.0000 O   0  0  0  0  0  0  0  0  0  0  0  0
    3.4875    0.8458    0.0000 C   0  0  0  0  0  0  0  0  0  0  0  0
    2.3167    0.1708    0.0000 C   0  0  0  0  0  0  0  0  0  0  0  0
   -0.6000   -0.8292    0.0000 C   0  0  0  0  0  0  0  0  0  0  0  0
    3.4667    0.1708    0.0000 C   0  0  0  0  0  0  0  0  0  0  0  0
    2.9000    1.1833    0.0000 C   0  0  0  0  0  0  0  0  0  0  0  0
    1.1500   -1.1792    0.0000 O   0  0  0  0  0  0  0  0  0  0  0  0
    2.8875   -0.1542    0.0000 C   0  0  0  0  0  0  0  0  0  0  0  0
    2.3167    0.8458    0.0000 C   0  0  0  0  0  0  0  0  0  0  0  0
   -4.6833    0.1625    0.0000 C   0  0  0  0  0  0  0  0  0  0  0  0
    5.2375    1.1500    0.0000 C   0  0  0  0  0  0  0  0  0  0  0  0
   -4.6833   -1.1792    0.0000 C   0  0  0  0  0  0  0  0  0  0  0  0
    1.7375   -0.8375    0.0000 C   0  0  0  0  0  0  0  0  0  0  0  0
   -5.2708   -0.1667    0.0000 C   0  0  0  0  0  0  0  0  0  0  0  0
   -5.2708   -0.8375    0.0000 C   0  0  0  0  0  0  0  0  0  0  0  0
  2  1  1  0  0  0  0
  3 12  2  0  0  0  0
  4  2  2  0  0  0  0
  5  1  1  0  0  0  0
  6  5  1  0  0  0  0
  7  1  2  0  0  0  0
  8  6  2  0  0  0  0
  9 10  1  0  0  0  0
 10 22  1  0  0  0  0
 11 19  2  0  0  0  0
 12 18  1  0  0  0  0
 13  3  1  0  0  0  0
 14 15  2  0  0  0  0
 15  7  1  0  0  0  0
 16  5  2  0  0  0  0
 17  9  2  0  0  0  0
 18  8  1  0  0  0  0
 19 24  1  0  0  0  0
 20 13  1  0  0  0  0
 21  2  1  0  0  0  0
 22 26  1  0  0  0  0
 23 20  1  0  0  0  0
 24 18  2  0  0  0  0
 25 28  1  0  0  0  0
 26 29  2  0  0  0  0
 27 11  1  0  0  0  0
 28 23  2  0  0  0  0
 29 23  1  0  0  0  0
 30  4  1  0  0  0  0
 31  9  1  0  0  0  0
 32 14  1  0  0  0  0
 33 27  1  0  0  0  0
 34 30  2  0  0  0  0
 35 32  2  0  0  0  0
  4 14  1  0  0  0  0
 34 35  1  0  0  0  0
 11  3  1  0  0  0  0
 25 22  2  0  0  0  0
M  END
> <#>
1249

> <PLATE>
LAT016

> <ROW>
A

> <COL>
8

> <COORD>
A08

> <LATID>
LAT016A08

> <Supplier>
Chembridge

> <Suplier_CAT#>
6155551

> <Name>
Novel

> <Concentration_(mM)>
2.5

> <IC50_(µM)>
inactive

> <Yeast_Active?>
-

> <Pubchem_CID>
2888477

$$$$
