
  -ISIS-  08130814242D

 20 22  0  0  0  0  0  0  0  0999 V2000
    3.1542    2.5958    0.0000 C   0  0  3  0  0  0  0  0  0  0  0  0
    2.8792    1.8958    0.0000 C   0  0  0  0  0  0  0  0  0  0  0  0
    3.5792    1.6000    0.0000 C   0  0  3  0  0  0  0  0  0  0  0  0
    4.6000    2.6083    0.0000 C   0  0  0  0  0  0  0  0  0  0  0  0
    2.4417    2.8833    0.0000 C   0  0  0  0  0  0  0  0  0  0  0  0
    3.8917    2.3083    0.0000 C   0  0  3  0  0  0  0  0  0  0  0  0
    3.0625    3.3458    0.0000 C   0  0  0  0  0  0  0  0  0  0  0  0
    1.7417    2.4583    0.0000 N   0  0  0  0  0  0  0  0  0  0  0  0
    2.3792    1.2458    0.0000 C   0  0  0  0  0  0  0  0  0  0  0  0
    3.7667    3.0708    0.0000 C   0  0  0  0  0  0  0  0  0  0  0  0
    0.3250    1.6375    0.0000 N   0  0  0  0  0  0  0  0  0  0  0  0
    2.5250    3.6958    0.0000 O   0  0  0  0  0  0  0  0  0  0  0  0
    1.7542    1.6250    0.0000 C   0  0  0  0  0  0  0  0  0  0  0  0
    1.0417    1.2083    0.0000 C   0  0  0  0  0  0  0  0  0  0  0  0
    4.2917    1.3083    0.0000 C   0  0  0  0  0  0  0  0  0  0  0  0
    3.3000    0.8958    0.0000 C   0  0  0  0  0  0  0  0  0  0  0  0
   -0.3833    1.2083    0.0000 C   0  0  0  0  0  0  0  0  0  0  0  0
    1.0417    0.3958    0.0000 C   0  0  0  0  0  0  0  0  0  0  0  0
   -0.3833    0.3958    0.0000 C   0  0  0  0  0  0  0  0  0  0  0  0
    0.3250   -0.0500    0.0000 C   0  0  0  0  0  0  0  0  0  0  0  0
  2  1  1  0  0  0  0
  3  2  1  0  0  0  0
  4  1  1  0  0  0  0
  5  1  1  0  0  0  0
  6  4  1  0  0  0  0
  7  1  1  0  0  0  0
  8  5  1  0  0  0  0
  9  2  2  0  0  0  0
 10  7  1  0  0  0  0
 11 14  2  0  0  0  0
 12  5  2  0  0  0  0
 13  8  1  0  0  0  0
 14 13  1  0  0  0  0
 15  3  1  0  0  0  0
 16  3  1  0  0  0  0
 17 11  1  0  0  0  0
 18 14  1  0  0  0  0
 19 20  1  0  0  0  0
 20 18  2  0  0  0  0
  6 10  1  0  0  0  0
  3  6  1  0  0  0  0
 19 17  2  0  0  0  0
M  END
> <#>
1590

> <PLATE>
LAT020

> <ROW>
F

> <COL>
10

> <COORD>
F10

> <LATID>
LAT020F10

> <Supplier>
Chembridge

> <Suplier_CAT#>
7991250

> <Name>
Novel

> <Concentration_(mM)>
2.5

> <IC50_(µM)>
inactive

> <Yeast_Active?>
-

> <Pubchem_CID>
2984568

$$$$
