
  -ISIS-  08130814242D

 23 24  0  0  0  0  0  0  0  0999 V2000
    6.1000   -4.1292    0.0000 S   0  0  3  0  0  0  0  0  0  0  0  0
    6.0917   -4.9667    0.0000 N   0  0  3  0  0  0  0  0  0  0  0  0
    6.8042   -5.3792    0.0000 C   0  0  0  0  0  0  0  0  0  0  0  0
    6.0917   -3.3042    0.0000 C   0  0  0  0  0  0  0  0  0  0  0  0
    7.5292   -4.9667    0.0000 C   0  0  0  0  0  0  0  0  0  0  0  0
    6.9292   -4.1292    0.0000 O   0  0  0  0  0  0  0  0  0  0  0  0
    5.2667   -4.1292    0.0000 O   0  0  0  0  0  0  0  0  0  0  0  0
    8.2417   -5.3875    0.0000 N   0  0  0  0  0  0  0  0  0  0  0  0
    9.6792   -6.2250    0.0000 N   0  0  0  0  0  0  0  0  0  0  0  0
    7.5292   -4.1417    0.0000 O   0  0  0  0  0  0  0  0  0  0  0  0
    6.8125   -2.8875    0.0000 C   0  0  0  0  0  0  0  0  0  0  0  0
    5.3792   -2.8917    0.0000 C   0  0  0  0  0  0  0  0  0  0  0  0
    9.6875   -5.3917    0.0000 C   0  0  0  0  0  0  0  0  0  0  0  0
    8.9667   -4.9750    0.0000 C   0  0  0  0  0  0  0  0  0  0  0  0
    6.0875   -1.6500    0.0000 C   0  0  0  0  0  0  0  0  0  0  0  0
    5.3667   -2.0667    0.0000 C   0  0  0  0  0  0  0  0  0  0  0  0
    6.8042   -2.0542    0.0000 C   0  0  0  0  0  0  0  0  0  0  0  0
    6.0792   -0.8250    0.0000 Cl  0  0  0  0  0  0  0  0  0  0  0  0
    5.3792   -5.3750    0.0000 C   0  0  0  0  0  0  0  0  0  0  0  0
   10.3917   -6.6417    0.0000 C   0  0  0  0  0  0  0  0  0  0  0  0
   10.4042   -4.9792    0.0000 C   0  0  0  0  0  0  0  0  0  0  0  0
   11.1250   -6.2250    0.0000 C   0  0  0  0  0  0  0  0  0  0  0  0
   11.1167   -5.3917    0.0000 C   0  0  0  0  0  0  0  0  0  0  0  0
  2  1  1  0  0  0  0
  3  2  1  0  0  0  0
  4  1  1  0  0  0  0
  5  3  1  0  0  0  0
  6  1  2  0  0  0  0
  7  1  2  0  0  0  0
  8  5  1  0  0  0  0
  9 13  2  0  0  0  0
 10  5  2  0  0  0  0
 11  4  2  0  0  0  0
 12  4  1  0  0  0  0
 13 14  1  0  0  0  0
 14  8  1  0  0  0  0
 15 16  1  0  0  0  0
 16 12  2  0  0  0  0
 17 11  1  0  0  0  0
 18 15  1  0  0  0  0
 19  2  1  0  0  0  0
 20  9  1  0  0  0  0
 21 13  1  0  0  0  0
 22 23  1  0  0  0  0
 23 21  2  0  0  0  0
 17 15  2  0  0  0  0
 22 20  2  0  0  0  0
M  END
> <#>
1464

> <PLATE>
LAT019

> <ROW>
H

> <COL>
4

> <COORD>
H04

> <LATID>
LAT019H04

> <Supplier>
Chembridge

> <Suplier_CAT#>
7060198

> <Name>
Novel

> <Concentration_(mM)>
2.5

> <IC50_(µM)>
inactive

> <Yeast_Active?>
-

> <Pubchem_CID>
1073006

$$$$
