
  -ISIS-  08130814242D

 20 22  0  0  0  0  0  0  0  0999 V2000
    0.4292   -0.2042    0.0000 N   0  0  3  0  0  0  0  0  0  0  0  0
   -1.0333   -0.2042    0.0000 N   0  0  0  0  0  0  0  0  0  0  0  0
   -0.3000    1.0333    0.0000 C   0  0  0  0  0  0  0  0  0  0  0  0
    0.4292    0.6000    0.0000 C   0  0  0  0  0  0  0  0  0  0  0  0
   -1.0333    0.6000    0.0000 C   0  0  0  0  0  0  0  0  0  0  0  0
    1.2542   -0.7375    0.0000 C   0  0  0  0  0  0  0  0  0  0  0  0
   -1.8458    1.0333    0.0000 C   0  0  0  0  0  0  0  0  0  0  0  0
    1.3042    1.0500    0.0000 N   0  0  0  0  0  0  0  0  0  0  0  0
    2.1292   -0.2500    0.0000 C   0  0  0  0  0  0  0  0  0  0  0  0
    2.9542   -0.7375    0.0000 C   0  0  0  0  0  0  0  0  0  0  0  0
    3.8042   -0.2500    0.0000 C   0  0  0  0  0  0  0  0  0  0  0  0
    4.6500   -0.7167    0.0000 Cl  0  0  0  0  0  0  0  0  0  0  0  0
    2.9542    1.2125    0.0000 C   0  0  0  0  0  0  0  0  0  0  0  0
    2.1292    0.7208    0.0000 C   0  0  0  0  0  0  0  0  0  0  0  0
   -1.8458    1.9958    0.0000 C   0  0  0  0  0  0  0  0  0  0  0  0
   -2.6958    0.5333    0.0000 C   0  0  0  0  0  0  0  0  0  0  0  0
    3.8042    0.7208    0.0000 C   0  0  0  0  0  0  0  0  0  0  0  0
   -2.6958    2.4833    0.0000 C   0  0  0  0  0  0  0  0  0  0  0  0
   -3.5208    1.0333    0.0000 C   0  0  0  0  0  0  0  0  0  0  0  0
   -3.5208    1.9958    0.0000 C   0  0  0  0  0  0  0  0  0  0  0  0
  2  1  1  0  0  0  0
  3  4  2  0  0  0  0
  4  1  1  0  0  0  0
  5  2  2  0  0  0  0
  6  1  1  0  0  0  0
  7  5  1  0  0  0  0
  8  4  1  0  0  0  0
  9  6  1  0  0  0  0
 10  9  2  0  0  0  0
 11 10  1  0  0  0  0
 12 11  1  0  0  0  0
 13 14  2  0  0  0  0
 14  9  1  0  0  0  0
 15  7  2  0  0  0  0
 16  7  1  0  0  0  0
 17 13  1  0  0  0  0
 18 15  1  0  0  0  0
 19 16  2  0  0  0  0
 20 19  1  0  0  0  0
  5  3  1  0  0  0  0
 17 11  2  0  0  0  0
 18 20  2  0  0  0  0
M  END
> <#>
1851

> <PLATE>
LAT024

> <ROW>
C

> <COL>
3

> <COORD>
C03

> <LATID>
LAT024C03

> <Supplier>
Chembridge

> <Suplier_CAT#>
5726687

> <Name>
Novel

> <Sec_Name>
229_G02

> <Concentration_(mM)>
2.5

> <IC50_(µM)>
47

> <Yeast_Active?>
-

> <Pubchem_CID>
684446

$$$$
