
  -ISIS-  08130814242D

 18 19  0  0  0  0  0  0  0  0999 V2000
   -2.7833    1.6333    0.0000 C   0  0  0  0  0  0  0  0  0  0  0  0
   -1.9500    2.1000    0.0000 C   0  0  0  0  0  0  0  0  0  0  0  0
   -1.1333    1.6333    0.0000 C   0  0  0  0  0  0  0  0  0  0  0  0
   -0.3125    2.1000    0.0000 C   0  0  0  0  0  0  0  0  0  0  0  0
    0.5042    1.6333    0.0000 C   0  0  0  0  0  0  0  0  0  0  0  0
   -3.5958    2.1000    0.0000 C   0  0  0  0  0  0  0  0  0  0  0  0
   -2.7833    0.6958    0.0000 C   0  0  0  0  0  0  0  0  0  0  0  0
    1.3167    2.1000    0.0000 O   0  0  0  0  0  0  0  0  0  0  0  0
    0.7167    0.7125    0.0000 C   0  0  0  0  0  0  0  0  0  0  0  0
   -4.4083    1.6333    0.0000 C   0  0  0  0  0  0  0  0  0  0  0  0
   -1.9500    3.0333    0.0000 O   0  0  0  0  0  0  0  0  0  0  0  0
    2.0167    1.5208    0.0000 C   0  0  0  0  0  0  0  0  0  0  0  0
   -0.3125    3.0333    0.0000 O   0  0  0  0  0  0  0  0  0  0  0  0
    1.6542    0.6333    0.0000 C   0  0  0  0  0  0  0  0  0  0  0  0
   -3.5958    3.0458    0.0000 O   0  0  0  0  0  0  0  0  0  0  0  0
   -3.5958    0.2208    0.0000 C   0  0  0  0  0  0  0  0  0  0  0  0
   -4.4083    0.6958    0.0000 C   0  0  0  0  0  0  0  0  0  0  0  0
   -5.2208    0.2458    0.0000 C   0  0  0  0  0  0  0  0  0  0  0  0
  2  1  1  0  0  0  0
  3  2  1  0  0  0  0
  4  3  1  0  0  0  0
  5  4  1  0  0  0  0
  6  1  1  0  0  0  0
  7  1  2  0  0  0  0
  8  5  1  0  0  0  0
  9  5  2  0  0  0  0
 10  6  2  0  0  0  0
 11  2  2  0  0  0  0
 12  8  1  0  0  0  0
 13  4  2  0  0  0  0
 14  9  1  0  0  0  0
 15  6  1  0  0  0  0
 16  7  1  0  0  0  0
 17 16  2  0  0  0  0
 18 17  1  0  0  0  0
 17 10  1  0  0  0  0
 12 14  2  0  0  0  0
M  END
> <#>
1138

> <PLATE>
LAT015

> <ROW>
B

> <COL>
4

> <COORD>
B04

> <LATID>
LAT015B04

> <Supplier>
Chembridge

> <Suplier_CAT#>
5477915

> <Name>
Novel

> <Sec_Name>
142_A06

> <Concentration_(mM)>
2.5

> <IC50_(µM)>
98

> <Yeast_Active?>
-

> <Pubchem_CID>
868452

$$$$
