
  -ISIS-  08130814242D

 19 20  0  0  0  0  0  0  0  0999 V2000
   -0.1000   -0.3792    0.0000 C   0  0  0  0  0  0  0  0  0  0  0  0
   -0.7000   -0.7792    0.0000 C   0  0  0  0  0  0  0  0  0  0  0  0
    0.6000   -0.7042    0.0000 C   0  0  0  0  0  0  0  0  0  0  0  0
    1.2667   -0.2875    0.0000 C   0  0  0  0  0  0  0  0  0  0  0  0
   -1.3958   -0.4292    0.0000 C   0  0  0  0  0  0  0  0  0  0  0  0
    1.1875    0.4958    0.0000 C   0  0  0  0  0  0  0  0  0  0  0  0
   -0.7000   -1.5000    0.0000 C   0  0  0  0  0  0  0  0  0  0  0  0
   -0.1000    0.4333    0.0000 O   0  0  0  0  0  0  0  0  0  0  0  0
   -2.0625   -0.8292    0.0000 C   0  0  0  0  0  0  0  0  0  0  0  0
    0.4875    0.8208    0.0000 O   0  0  0  0  0  0  0  0  0  0  0  0
   -1.4125    0.3458    0.0000 O   0  0  0  0  0  0  0  0  0  0  0  0
    1.8042    0.9833    0.0000 O   0  0  0  0  0  0  0  0  0  0  0  0
   -1.3708   -1.9167    0.0000 C   0  0  0  0  0  0  0  0  0  0  0  0
   -2.0625   -1.5667    0.0000 C   0  0  0  0  0  0  0  0  0  0  0  0
    0.6042   -1.4792    0.0000 C   0  0  0  0  0  0  0  0  0  0  0  0
    2.0167   -0.6292    0.0000 C   0  0  0  0  0  0  0  0  0  0  0  0
   -2.7333   -1.9500    0.0000 C   0  0  0  0  0  0  0  0  0  0  0  0
    1.3500   -1.8500    0.0000 C   0  0  0  0  0  0  0  0  0  0  0  0
    2.0500   -1.4292    0.0000 C   0  0  0  0  0  0  0  0  0  0  0  0
  2  1  1  0  0  0  0
  3  1  1  0  0  0  0
  4  3  2  0  0  0  0
  5  2  2  0  0  0  0
  6  4  1  0  0  0  0
  7  2  1  0  0  0  0
  8  1  2  0  0  0  0
  9  5  1  0  0  0  0
 10  6  2  0  0  0  0
 11  5  1  0  0  0  0
 12  6  1  0  0  0  0
 13  7  2  0  0  0  0
 14 13  1  0  0  0  0
 15  3  1  0  0  0  0
 16  4  1  0  0  0  0
 17 14  1  0  0  0  0
 18 15  2  0  0  0  0
 19 18  1  0  0  0  0
 19 16  2  0  0  0  0
 14  9  2  0  0  0  0
M  END
> <#>
1168

> <PLATE>
LAT015

> <ROW>
H

> <COL>
7

> <COORD>
H07

> <LATID>
LAT015H07

> <Supplier>
Chembridge

> <Suplier_CAT#>
5626971

> <Name>
Novel

> <Sec_Name>
190_H07

> <Concentration_(mM)>
2.5

> <IC50_(µM)>
43

> <Yeast_Active?>
-

> <Pubchem_CID>
458233

$$$$
