
  -ISIS-  08130814242D

 21 22  0  0  0  0  0  0  0  0999 V2000
    1.5417    1.2083    0.0000 C   0  0  0  0  0  0  0  0  0  0  0  0
    1.5417    0.4583    0.0000 C   0  0  0  0  0  0  0  0  0  0  0  0
    2.2542    1.4375    0.0000 N   0  0  0  0  0  0  0  0  0  0  0  0
    2.7000    0.8333    0.0000 N   0  0  3  0  0  0  0  0  0  0  0  0
    2.2542    0.2250    0.0000 C   0  0  0  0  0  0  0  0  0  0  0  0
    0.9375    1.6458    0.0000 N   0  3  0  0  0  0  0  0  0  0  0  0
    3.4500    0.8333    0.0000 C   0  0  0  0  0  0  0  0  0  0  0  0
    3.8250    1.4833    0.0000 C   0  0  0  0  0  0  0  0  0  0  0  0
    1.0167    2.3958    0.0000 O   0  5  0  0  0  0  0  0  0  0  0  0
    0.2542    1.3458    0.0000 O   0  0  0  0  0  0  0  0  0  0  0  0
    0.9375    0.0208    0.0000 Br  0  0  0  0  0  0  0  0  0  0  0  0
    4.5750    1.4833    0.0000 N   0  0  0  0  0  0  0  0  0  0  0  0
    6.0750    1.4833    0.0000 N   0  0  0  0  0  0  0  0  0  0  0  0
    3.4500    2.1333    0.0000 O   0  0  0  0  0  0  0  0  0  0  0  0
    5.7000    2.1333    0.0000 C   0  0  0  0  0  0  0  0  0  0  0  0
    2.4875   -0.4875    0.0000 C   0  0  0  0  0  0  0  0  0  0  0  0
    4.9500    2.1333    0.0000 C   0  0  0  0  0  0  0  0  0  0  0  0
    6.8250    1.4833    0.0000 C   0  0  0  0  0  0  0  0  0  0  0  0
    6.0750    2.7833    0.0000 C   0  0  0  0  0  0  0  0  0  0  0  0
    7.2000    2.1333    0.0000 C   0  0  0  0  0  0  0  0  0  0  0  0
    6.8250    2.7833    0.0000 C   0  0  0  0  0  0  0  0  0  0  0  0
  2  1  1  0  0  0  0
  3  1  2  0  0  0  0
  4  3  1  0  0  0  0
  5  2  2  0  0  0  0
  6  1  1  0  0  0  0
  7  4  1  0  0  0  0
  8  7  1  0  0  0  0
  9  6  1  0  0  0  0
 10  6  2  0  0  0  0
 11  2  1  0  0  0  0
 12  8  1  0  0  0  0
 13 15  2  0  0  0  0
 14  8  2  0  0  0  0
 15 17  1  0  0  0  0
 16  5  1  0  0  0  0
 17 12  1  0  0  0  0
 18 13  1  0  0  0  0
 19 15  1  0  0  0  0
 20 21  1  0  0  0  0
 21 19  2  0  0  0  0
  5  4  1  0  0  0  0
 20 18  2  0  0  0  0
M  CHG  2   6   1   9  -1
M  END
> <#>
1491

> <PLATE>
LAT019

> <ROW>
C

> <COL>
8

> <COORD>
C08

> <LATID>
LAT019C08

> <Supplier>
Chembridge

> <Suplier_CAT#>
7983024

> <Name>
Novel

> <Concentration_(mM)>
2.5

> <IC50_(µM)>
inactive

> <Yeast_Active?>
-

> <Pubchem_CID>
1257653

$$$$
