
  -ISIS-  08130814242D

 25 27  0  0  0  0  0  0  0  0999 V2000
   -0.4958    0.6958    0.0000 N   0  0  3  0  0  0  0  0  0  0  0  0
    0.1500    1.0708    0.0000 C   0  0  3  0  0  0  0  0  0  0  0  0
   -1.0708    1.1958    0.0000 N   0  0  0  0  0  0  0  0  0  0  0  0
   -0.4958   -0.0667    0.0000 C   0  0  0  0  0  0  0  0  0  0  0  0
   -0.0125    1.8125    0.0000 C   0  0  0  0  0  0  0  0  0  0  0  0
    0.8667    0.8208    0.0000 C   0  0  0  0  0  0  0  0  0  0  0  0
   -0.7708    1.8958    0.0000 C   0  0  0  0  0  0  0  0  0  0  0  0
   -1.1458   -0.4542    0.0000 C   0  0  0  0  0  0  0  0  0  0  0  0
    0.1500   -0.4500    0.0000 O   0  0  0  0  0  0  0  0  0  0  0  0
    1.4542    1.3125    0.0000 C   0  0  0  0  0  0  0  0  0  0  0  0
    0.8542    1.5208    0.0000 O   0  0  0  0  0  0  0  0  0  0  0  0
   -1.8125   -0.0875    0.0000 C   0  0  0  0  0  0  0  0  0  0  0  0
   -1.1458   -1.2292    0.0000 C   0  0  0  0  0  0  0  0  0  0  0  0
   -2.4708   -1.2500    0.0000 C   0  0  0  0  0  0  0  0  0  0  0  0
    2.1875    1.0625    0.0000 C   0  0  0  0  0  0  0  0  0  0  0  0
   -2.4708   -0.4667    0.0000 C   0  0  0  0  0  0  0  0  0  0  0  0
   -1.7958   -1.6167    0.0000 C   0  0  0  0  0  0  0  0  0  0  0  0
   -3.1208   -1.6375    0.0000 Cl  0  0  0  0  0  0  0  0  0  0  0  0
    1.0042    0.0625    0.0000 C   0  0  0  0  0  0  0  0  0  0  0  0
    2.7542    1.5625    0.0000 O   0  0  0  0  0  0  0  0  0  0  0  0
   -1.1500    2.5500    0.0000 C   0  0  0  0  0  0  0  0  0  0  0  0
    1.7375   -0.2000    0.0000 C   0  0  0  0  0  0  0  0  0  0  0  0
    2.3500    0.3125    0.0000 C   0  0  0  0  0  0  0  0  0  0  0  0
    3.4875    1.3208    0.0000 C   0  0  0  0  0  0  0  0  0  0  0  0
   -1.9125    2.5333    0.0000 C   0  0  0  0  0  0  0  0  0  0  0  0
  2  1  1  0  0  0  0
  3  1  1  0  0  0  0
  4  1  1  0  0  0  0
  5  2  1  0  0  0  0
  6  2  1  0  0  0  0
  7  3  2  0  0  0  0
  8  4  1  0  0  0  0
  9  4  2  0  0  0  0
 10  6  1  0  0  0  0
 11  2  1  0  0  0  0
 12  8  2  0  0  0  0
 13  8  1  0  0  0  0
 14 17  1  0  0  0  0
 15 10  2  0  0  0  0
 16 12  1  0  0  0  0
 17 13  2  0  0  0  0
 18 14  1  0  0  0  0
 19  6  2  0  0  0  0
 20 15  1  0  0  0  0
 21  7  1  0  0  0  0
 22 19  1  0  0  0  0
 23 22  2  0  0  0  0
 24 20  1  0  0  0  0
 25 21  1  0  0  0  0
  7  5  1  0  0  0  0
 16 14  2  0  0  0  0
 15 23  1  0  0  0  0
M  END
> <#>
1821

> <PLATE>
LAT023

> <ROW>
E

> <COL>
9

> <COORD>
E09

> <LATID>
LAT023E09

> <Supplier>
Chembridge

> <Suplier_CAT#>
5647889

> <Name>
Novel

> <Sec_Name>
197_H07

> <Concentration_(mM)>
2.5

> <IC50_(µM)>
9

> <Yeast_Active?>
-

> <Pubchem_CID>
3343939

$$$$
