
  -ISIS-  08130814242D

 25 28  0  0  0  0  0  0  0  0999 V2000
    3.9208   -0.0333    0.0000 N   0  0  3  0  0  0  0  0  0  0  0  0
    3.9208   -2.5125    0.0000 C   0  0  1  0  0  0  0  0  0  0  0  0
    3.2333    0.3792    0.0000 C   0  0  0  0  0  0  0  0  0  0  0  0
    3.2333    1.2042    0.0000 C   0  0  0  0  0  0  0  0  0  0  0  0
    4.6083    1.2042    0.0000 N   0  0  0  0  0  0  0  0  0  0  0  0
    3.5208   -3.1875    0.0000 C   0  0  3  0  0  0  0  0  0  0  0  0
    4.6083    0.3792    0.0000 C   0  0  0  0  0  0  0  0  0  0  0  0
    3.0500   -2.0000    0.0000 O   0  0  0  0  0  0  0  0  0  0  0  0
    2.5458    1.6167    0.0000 C   0  0  0  0  0  0  0  0  0  0  0  0
    2.5833   -3.1875    0.0000 C   0  0  2  0  0  0  0  0  0  0  0  0
    2.2167   -2.5500    0.0000 C   0  0  1  0  0  0  0  0  0  0  0  0
    2.5417   -0.0333    0.0000 N   0  0  0  0  0  0  0  0  0  0  0  0
    1.8500    1.2042    0.0000 N   0  0  0  0  0  0  0  0  0  0  0  0
    2.5458    2.1083    0.0000 N   0  0  0  0  0  0  0  0  0  0  0  0
    1.8500    0.3792    0.0000 C   0  0  0  0  0  0  0  0  0  0  0  0
    3.4833   -3.8208    0.0000 O   0  0  0  0  0  0  0  0  0  0  0  0
    2.5833   -3.8208    0.0000 O   0  0  0  0  0  0  0  0  0  0  0  0
    2.0375    2.4083    0.0000 C   0  0  0  0  0  0  0  0  0  0  0  0
    1.8875   -1.9542    0.0000 C   0  0  0  0  0  0  0  0  0  0  0  0
    1.2333   -1.7375    0.0000 O   0  0  0  0  0  0  0  0  0  0  0  0
    2.0375    3.2292    0.0000 C   0  0  0  0  0  0  0  0  0  0  0  0
    1.3500    1.9917    0.0000 C   0  0  0  0  0  0  0  0  0  0  0  0
    0.6542    2.4083    0.0000 C   0  0  0  0  0  0  0  0  0  0  0  0
    1.3500    3.6417    0.0000 C   0  0  0  0  0  0  0  0  0  0  0  0
    0.6542    3.2292    0.0000 C   0  0  0  0  0  0  0  0  0  0  0  0
  2  1  1  0  0  0  0
  3  1  1  0  0  0  0
  4  3  2  0  0  0  0
  5  7  2  0  0  0  0
  2  6  1  1  0  0  0
  7  1  1  0  0  0  0
  8  2  1  0  0  0  0
  9  4  1  0  0  0  0
 10  6  1  1  0  0  0
 11  8  1  0  0  0  0
 12  3  1  0  0  0  0
 13 15  1  0  0  0  0
 14  9  1  0  0  0  0
 15 12  2  0  0  0  0
 16  6  1  0  0  0  0
 17 10  1  0  0  0  0
 18 14  1  0  0  0  0
 19 11  1  0  0  0  0
 20 19  1  0  0  0  0
 21 18  2  0  0  0  0
 22 18  1  0  0  0  0
 23 22  2  0  0  0  0
 24 21  1  0  0  0  0
 25 23  1  0  0  0  0
  4  5  1  0  0  0  0
 11 10  1  1  0  0  0
 13  9  2  0  0  0  0
 25 24  2  0  0  0  0
M  END
> <#>
268

> <PLATE>
LAT004

> <ROW>
D

> <COL>
5

> <COORD>
D05

> <LATID>
LAT004D05

> <Supplier>
Sigma

> <Suplier_CAT#>
P-108

> <Name>
N6-Phenyladenosine

> <Concentration_(mM)>
2.5

> <IC50_(µM)>
7.2

> <Yeast_Active?>
-

> <Pubchem_CID>
4405

> <Description>
Kinetin Analog

> <Comment>
In mammals, potent A1 adenosine receptor agonist

> <LATCA_Notes>
Kinetin analog with potent cytokinin activity

$$$$
