
  -ISIS-  08130814242D

 24 26  0  0  0  0  0  0  0  0999 V2000
    2.1542   -1.2000    0.0000 N   0  0  3  0  0  0  0  0  0  0  0  0
    2.6000   -0.3500    0.0000 N   0  0  0  0  0  0  0  0  0  0  0  0
   -1.4500    0.2625    0.0000 C   0  0  0  0  0  0  0  0  0  0  0  0
    1.1042   -0.1500    0.0000 C   0  0  0  0  0  0  0  0  0  0  0  0
    1.2542   -1.0500    0.0000 C   0  0  0  0  0  0  0  0  0  0  0  0
   -0.6458   -0.2000    0.0000 C   0  0  0  0  0  0  0  0  0  0  0  0
   -1.4500    1.2000    0.0000 C   0  0  0  0  0  0  0  0  0  0  0  0
   -2.2625   -0.2000    0.0000 C   0  0  0  0  0  0  0  0  0  0  0  0
   -2.2625    1.6708    0.0000 C   0  0  0  0  0  0  0  0  0  0  0  0
   -3.0708    1.2000    0.0000 C   0  0  0  0  0  0  0  0  0  0  0  0
    1.9000    0.2458    0.0000 C   0  0  0  0  0  0  0  0  0  0  0  0
   -3.0708    0.2625    0.0000 C   0  0  0  0  0  0  0  0  0  0  0  0
    0.1500    0.2625    0.0000 C   0  0  0  0  0  0  0  0  0  0  0  0
    2.6000   -2.0000    0.0000 C   0  0  0  0  0  0  0  0  0  0  0  0
   -0.6500   -1.0000    0.0000 O   0  0  0  0  0  0  0  0  0  0  0  0
   -0.6458    1.6708    0.0000 O   0  0  0  0  0  0  0  0  0  0  0  0
   -3.9458    1.6500    0.0000 O   0  0  0  0  0  0  0  0  0  0  0  0
   -3.7458   -0.0875    0.0000 C   0  0  0  0  0  0  0  0  0  0  0  0
    2.1000   -2.7500    0.0000 C   0  0  0  0  0  0  0  0  0  0  0  0
    3.5000   -2.0500    0.0000 C   0  0  0  0  0  0  0  0  0  0  0  0
   -3.7208   -0.8042    0.0000 C   0  0  0  0  0  0  0  0  0  0  0  0
    2.5000   -3.6000    0.0000 C   0  0  0  0  0  0  0  0  0  0  0  0
    3.9042   -2.8500    0.0000 C   0  0  0  0  0  0  0  0  0  0  0  0
    3.4042   -3.6500    0.0000 C   0  0  0  0  0  0  0  0  0  0  0  0
  2  1  1  0  0  0  0
  3  6  1  0  0  0  0
  4  5  2  0  0  0  0
  5  1  1  0  0  0  0
  6 13  1  0  0  0  0
  7  3  2  0  0  0  0
  8  3  1  0  0  0  0
  9  7  1  0  0  0  0
 10 12  1  0  0  0  0
 11  2  2  0  0  0  0
 12  8  2  0  0  0  0
 13  4  1  0  0  0  0
 14  1  1  0  0  0  0
 15  6  2  0  0  0  0
 16  7  1  0  0  0  0
 17 10  1  0  0  0  0
 18 12  1  0  0  0  0
 19 14  2  0  0  0  0
 20 14  1  0  0  0  0
 21 18  1  0  0  0  0
 22 19  1  0  0  0  0
 23 20  2  0  0  0  0
 24 23  1  0  0  0  0
  4 11  1  0  0  0  0
 24 22  2  0  0  0  0
 10  9  2  0  0  0  0
M  END
> <#>
1271

> <PLATE>
LAT016

> <ROW>
G

> <COL>
10

> <COORD>
G10

> <LATID>
LAT016G10

> <Supplier>
Chembridge

> <Suplier_CAT#>
6652809

> <Name>
Novel

> <Concentration_(mM)>
2.5

> <IC50_(µM)>
inactive

> <Yeast_Active?>
-

> <Pubchem_CID>
886358

$$$$
