
  -ISIS-  08130814242D

 30 34  0  0  0  0  0  0  0  0999 V2000
    7.4917   -1.9625    0.0000 C   0  0  0  0  0  0  0  0  0  0  0  0
    3.5917   -1.9125    0.0000 C   0  0  0  0  0  0  0  0  0  0  0  0
    6.8417   -1.5750    0.0000 C   0  0  0  0  0  0  0  0  0  0  0  0
    0.3500   -0.7542    0.0000 N   0  0  3  0  0  0  0  0  0  0  0  0
    4.8917   -1.9250    0.0000 N   0  0  0  0  0  0  0  0  0  0  0  0
    7.4875   -2.7125    0.0000 C   0  0  0  0  0  0  0  0  0  0  0  0
    2.9417   -1.5292    0.0000 C   0  0  0  0  0  0  0  0  0  0  0  0
    6.1917   -1.9417    0.0000 C   0  0  0  0  0  0  0  0  0  0  0  0
    8.1500   -1.5917    0.0000 C   0  0  0  0  0  0  0  0  0  0  0  0
    4.2417   -1.5417    0.0000 N   0  0  0  0  0  0  0  0  0  0  0  0
    3.5792   -2.6667    0.0000 O   0  0  0  0  0  0  0  0  0  0  0  0
    8.1292   -3.0917    0.0000 C   0  0  0  0  0  0  0  0  0  0  0  0
    6.8292   -3.0792    0.0000 C   0  0  0  0  0  0  0  0  0  0  0  0
    8.7917   -1.9792    0.0000 C   0  0  0  0  0  0  0  0  0  0  0  0
    6.1792   -2.6917    0.0000 C   0  0  0  0  0  0  0  0  0  0  0  0
    5.5500   -1.5542    0.0000 C   0  0  0  0  0  0  0  0  0  0  0  0
   -0.9500   -1.5042    0.0000 O   0  0  0  0  0  0  0  0  0  0  0  0
    1.0042   -0.3875    0.0000 C   0  0  0  0  0  0  0  0  0  0  0  0
    2.9542   -0.7792    0.0000 C   0  0  0  0  0  0  0  0  0  0  0  0
    2.2917   -1.9000    0.0000 C   0  0  0  0  0  0  0  0  0  0  0  0
    1.6542   -0.7667    0.0000 C   0  0  0  0  0  0  0  0  0  0  0  0
    1.6417   -1.5167    0.0000 C   0  0  0  0  0  0  0  0  0  0  0  0
    2.3042   -0.3917    0.0000 C   0  0  0  0  0  0  0  0  0  0  0  0
    6.8542   -0.8167    0.0000 C   0  0  0  0  0  0  0  0  0  0  0  0
   -0.3000   -0.3792    0.0000 C   0  0  0  0  0  0  0  0  0  0  0  0
    0.3542   -1.5042    0.0000 C   0  0  0  0  0  0  0  0  0  0  0  0
    7.5167   -0.4542    0.0000 C   0  0  0  0  0  0  0  0  0  0  0  0
    8.1667   -0.8417    0.0000 C   0  0  0  0  0  0  0  0  0  0  0  0
   -0.3000   -1.8792    0.0000 C   0  0  0  0  0  0  0  0  0  0  0  0
   -0.9458   -0.7542    0.0000 C   0  0  0  0  0  0  0  0  0  0  0  0
  2 10  1  0  0  0  0
  3  1  1  0  0  0  0
  4 18  1  0  0  0  0
  5 16  2  0  0  0  0
  6  1  1  0  0  0  0
  7  2  1  0  0  0  0
  8  3  1  0  0  0  0
  9  1  2  0  0  0  0
 10  5  1  0  0  0  0
 11  2  2  0  0  0  0
 12  6  1  0  0  0  0
 13  6  2  0  0  0  0
 14  9  1  0  0  0  0
 15 13  1  0  0  0  0
 16  8  1  0  0  0  0
 17 29  1  0  0  0  0
 18 21  1  0  0  0  0
 19  7  1  0  0  0  0
 20  7  2  0  0  0  0
 21 22  2  0  0  0  0
 22 20  1  0  0  0  0
 23 19  2  0  0  0  0
 24  3  2  0  0  0  0
 25  4  1  0  0  0  0
 26  4  1  0  0  0  0
 27 28  2  0  0  0  0
 28  9  1  0  0  0  0
 29 26  1  0  0  0  0
 30 25  1  0  0  0  0
 14 12  1  0  0  0  0
 27 24  1  0  0  0  0
  8 15  2  0  0  0  0
 21 23  1  0  0  0  0
 30 17  1  0  0  0  0
M  END
> <#>
953

> <PLATE>
LAT012

> <ROW>
A

> <COL>
11

> <COORD>
A11

> <LATID>
LAT012A11

> <Supplier>
Chembridge

> <Suplier_CAT#>
5736285

> <Name>
Novel

> <Sec_Name>
234_C08

> <Concentration_(mM)>
2.5

> <IC50_(µM)>
74

> <Yeast_Active?>
-

> <Pubchem_CID>
1362855

$$$$
