
  -ISIS-  08130814242D

 20 22  0  0  0  0  0  0  0  0999 V2000
   -0.1375    1.3125    0.0000 C   0  0  0  0  0  0  0  0  0  0  0  0
   10.4167   -4.6792    0.0000 C   0  0  0  0  0  0  0  0  0  0  0  0
    6.8667   -4.6792    0.0000 C   0  0  0  0  0  0  0  0  0  0  0  0
    1.6375   -1.6542    0.0000 N   0  0  0  0  0  0  0  0  0  0  0  0
   12.1792   -1.6542    0.0000 C   0  0  0  0  0  0  0  0  0  0  0  0
   12.7917   -7.3000    0.0000 O   0  0  0  0  0  0  0  0  0  0  0  0
    1.6167    4.3542    0.0000 S   0  0  0  0  0  0  0  0  0  0  0  0
   -3.6458    1.3125    0.0000 N   0  0  0  0  0  0  0  0  0  0  0  0
   15.6375   -2.4042    0.0000 O   0  0  0  0  0  0  0  0  0  0  0  0
    5.1292   -1.6417    0.0000 C   0  0  0  0  0  0  0  0  0  0  0  0
   16.0000   -5.8792    0.0000 C   0  0  0  0  0  0  0  0  0  0  0  0
  -10.7542    7.3000    0.0000 N   0  0  0  0  0  0  0  0  0  0  0  0
   10.4042    1.3750    0.0000 C   0  0  0  0  0  0  0  0  0  0  0  0
   -8.9250    4.2917    0.0000 C   0  0  0  0  0  0  0  0  0  0  0  0
   -5.4208    4.3167    0.0000 C   0  0  0  0  0  0  0  0  0  0  0  0
    6.8667    1.3125    0.0000 C   0  0  0  0  0  0  0  0  0  0  0  0
  -14.2667    7.2375    0.0000 C   0  0  0  0  0  0  0  0  0  0  0  0
  -10.6542    1.2708    0.0000 C   0  0  0  0  0  0  0  0  0  0  0  0
  -16.0000    4.1875    0.0000 C   0  0  0  0  0  0  0  0  0  0  0  0
  -14.1542    1.2083    0.0000 C   0  0  0  0  0  0  0  0  0  0  0  0
  2  3  2  0  0  0  0
  3 10  1  0  0  0  0
  4  1  1  0  0  0  0
  5 13  2  0  0  0  0
  6  2  1  0  0  0  0
  7  1  2  0  0  0  0
  8  1  1  0  0  0  0
  9  5  1  0  0  0  0
 10  4  1  0  0  0  0
 11  6  1  0  0  0  0
 12 14  2  0  0  0  0
 13 16  1  0  0  0  0
 14 15  1  0  0  0  0
 15  8  1  0  0  0  0
 16 10  2  0  0  0  0
 17 12  1  0  0  0  0
 18 14  1  0  0  0  0
 19 20  1  0  0  0  0
 20 18  2  0  0  0  0
  5  2  1  0  0  0  0
 19 17  2  0  0  0  0
 11  9  1  0  0  0  0
M  END
> <#>
1446

> <PLATE>
LAT019

> <ROW>
F

> <COL>
2

> <COORD>
F02

> <LATID>
LAT019F02

> <Supplier>
Chembridge

> <Suplier_CAT#>
7840707

> <Name>
Novel

> <Concentration_(mM)>
2.5

> <IC50_(µM)>
92

> <Yeast_Active?>
-

> <Pubchem_CID>
972119

$$$$
