
  -ISIS-  08130814242D

 28 30  0  0  0  0  0  0  0  0999 V2000
   -1.3458   -0.3167    0.0000 N   0  0  3  0  0  0  0  0  0  0  0  0
   -0.7708   -0.9667    0.0000 C   0  0  0  0  0  0  0  0  0  0  0  0
   -0.9125    0.3958    0.0000 C   0  0  0  0  0  0  0  0  0  0  0  0
    0.0292   -0.6167    0.0000 C   0  0  0  0  0  0  0  0  0  0  0  0
   -0.0458    0.2208    0.0000 S   0  0  0  0  0  0  0  0  0  0  0  0
   -2.2208   -0.3167    0.0000 N   0  0  0  0  0  0  0  0  0  0  0  0
   -2.6333   -1.0375    0.0000 C   0  0  0  0  0  0  0  0  0  0  0  0
    0.7792   -1.0292    0.0000 C   0  0  0  0  0  0  0  0  0  0  0  0
   -1.2500    1.2208    0.0000 S   0  0  0  0  0  0  0  0  0  0  0  0
   -0.9500   -1.8375    0.0000 O   0  0  0  0  0  0  0  0  0  0  0  0
    3.0167    0.2708    0.0000 C   0  0  0  0  0  0  0  0  0  0  0  0
   -2.2208   -1.8042    0.0000 O   0  0  0  0  0  0  0  0  0  0  0  0
    3.7542    0.6958    0.0000 N   0  0  3  0  0  0  0  0  0  0  0  0
   -3.5208   -1.0375    0.0000 C   0  0  0  0  0  0  0  0  0  0  0  0
    1.5292   -0.6000    0.0000 C   0  0  0  0  0  0  0  0  0  0  0  0
    3.0167   -0.6000    0.0000 C   0  0  0  0  0  0  0  0  0  0  0  0
    2.2500    0.6958    0.0000 C   0  0  0  0  0  0  0  0  0  0  0  0
    2.3375   -0.9875    0.0000 C   0  0  0  0  0  0  0  0  0  0  0  0
    1.5292    0.2708    0.0000 C   0  0  0  0  0  0  0  0  0  0  0  0
    3.7542    1.5500    0.0000 C   0  0  0  0  0  0  0  0  0  0  0  0
    4.5000    0.2625    0.0000 C   0  0  0  0  0  0  0  0  0  0  0  0
   -3.9625   -1.8000    0.0000 C   0  0  0  0  0  0  0  0  0  0  0  0
   -3.9708   -0.3042    0.0000 C   0  0  0  0  0  0  0  0  0  0  0  0
    5.2375    0.6833    0.0000 C   0  0  0  0  0  0  0  0  0  0  0  0
    3.0167    1.9708    0.0000 C   0  0  0  0  0  0  0  0  0  0  0  0
   -4.8458   -0.3042    0.0000 C   0  0  0  0  0  0  0  0  0  0  0  0
   -4.8458   -1.8000    0.0000 C   0  0  0  0  0  0  0  0  0  0  0  0
   -5.2708   -1.0375    0.0000 C   0  0  0  0  0  0  0  0  0  0  0  0
  2  1  1  0  0  0  0
  3  1  1  0  0  0  0
  4  2  1  0  0  0  0
  5  3  1  0  0  0  0
  6  1  1  0  0  0  0
  7  6  1  0  0  0  0
  8  4  2  0  0  0  0
  9  3  2  0  0  0  0
 10  2  2  0  0  0  0
 11 17  2  0  0  0  0
 12  7  2  0  0  0  0
 13 11  1  0  0  0  0
 14  7  1  0  0  0  0
 15  8  1  0  0  0  0
 16 18  2  0  0  0  0
 17 19  1  0  0  0  0
 18 15  1  0  0  0  0
 19 15  2  0  0  0  0
 20 13  1  0  0  0  0
 21 13  1  0  0  0  0
 22 14  1  0  0  0  0
 23 14  2  0  0  0  0
 24 21  1  0  0  0  0
 25 20  1  0  0  0  0
 26 23  1  0  0  0  0
 27 22  2  0  0  0  0
 28 26  2  0  0  0  0
  5  4  1  0  0  0  0
 27 28  1  0  0  0  0
 16 11  1  0  0  0  0
M  END
> <#>
2040

> <PLATE>
LAT026

> <ROW>
H

> <COL>
6

> <COORD>
H06

> <LATID>
LAT026H06

> <Supplier>
Chembridge

> <Suplier_CAT#>
5523403

> <Sec_Name>
145_D08

> <Concentration_(mM)>
2.5

> <IC50_(µM)>
inactive

> <Yeast_Active?>
-

> <Pubchem_CID>
1367280

$$$$
