
  -ISIS-  08130814242D

 27 30  0  0  0  0  0  0  0  0999 V2000
    4.6792   -0.9042    0.0000 C   0  0  0  0  0  0  0  0  0  0  0  0
    3.4042   -0.5000    0.0000 C   0  0  0  0  0  0  0  0  0  0  0  0
    4.1917   -0.2375    0.0000 C   0  0  0  0  0  0  0  0  0  0  0  0
    3.4042   -1.3292    0.0000 C   0  0  0  0  0  0  0  0  0  0  0  0
    4.2000   -1.5792    0.0000 O   0  0  0  0  0  0  0  0  0  0  0  0
    0.5417   -2.1542    0.0000 C   0  0  0  0  0  0  0  0  0  0  0  0
   -0.1750   -1.7417    0.0000 C   0  0  0  0  0  0  0  0  0  0  0  0
    5.5042   -0.9000    0.0000 C   0  0  0  0  0  0  0  0  0  0  0  0
    2.6875   -1.7417    0.0000 C   0  0  0  0  0  0  0  0  0  0  0  0
   -0.9250   -2.0875    0.0000 S   0  0  0  0  0  0  0  0  0  0  0  0
    1.2542   -1.7417    0.0000 O   0  0  0  0  0  0  0  0  0  0  0  0
    2.6875   -0.0875    0.0000 C   0  0  0  0  0  0  0  0  0  0  0  0
    1.9750   -1.3292    0.0000 C   0  0  0  0  0  0  0  0  0  0  0  0
    4.4417    0.5500    0.0000 O   0  0  0  0  0  0  0  0  0  0  0  0
   -0.2583   -0.9292    0.0000 C   0  0  0  0  0  0  0  0  0  0  0  0
    0.5417   -2.9792    0.0000 O   0  0  0  0  0  0  0  0  0  0  0  0
   -1.4833   -1.4667    0.0000 C   0  0  0  0  0  0  0  0  0  0  0  0
   -1.0708   -0.7542    0.0000 C   0  0  0  0  0  0  0  0  0  0  0  0
    5.9250   -1.6125    0.0000 C   0  0  0  0  0  0  0  0  0  0  0  0
    1.9750   -0.5000    0.0000 C   0  0  0  0  0  0  0  0  0  0  0  0
    6.7542   -3.0292    0.0000 C   0  0  0  0  0  0  0  0  0  0  0  0
    6.7500   -1.6042    0.0000 C   0  0  0  0  0  0  0  0  0  0  0  0
    5.5167   -2.3292    0.0000 C   0  0  0  0  0  0  0  0  0  0  0  0
    5.9292   -3.0375    0.0000 C   0  0  0  0  0  0  0  0  0  0  0  0
    7.1667   -2.3125    0.0000 C   0  0  0  0  0  0  0  0  0  0  0  0
    7.1750   -3.7417    0.0000 O   0  0  0  0  0  0  0  0  0  0  0  0
    8.0000   -3.7417    0.0000 C   0  0  0  0  0  0  0  0  0  0  0  0
  2  3  1  0  0  0  0
  3  1  1  0  0  0  0
  4  5  1  0  0  0  0
  5  1  1  0  0  0  0
  6 11  1  0  0  0  0
  7  6  1  0  0  0  0
  8  1  2  0  0  0  0
  9  4  2  0  0  0  0
 10  7  1  0  0  0  0
 11 13  1  0  0  0  0
 12  2  2  0  0  0  0
 13  9  1  0  0  0  0
 14  3  2  0  0  0  0
 15  7  2  0  0  0  0
 16  6  2  0  0  0  0
 17 10  1  0  0  0  0
 18 15  1  0  0  0  0
 19  8  1  0  0  0  0
 20 12  1  0  0  0  0
 21 24  2  0  0  0  0
 22 19  1  0  0  0  0
 23 19  2  0  0  0  0
 24 23  1  0  0  0  0
 25 22  2  0  0  0  0
 26 21  1  0  0  0  0
 27 26  1  0  0  0  0
  4  2  1  0  0  0  0
 25 21  1  0  0  0  0
 13 20  2  0  0  0  0
 17 18  2  0  0  0  0
M  END
> <#>
1388

> <PLATE>
LAT018

> <ROW>
D

> <COL>
5

> <COORD>
D05

> <LATID>
LAT018D05

> <Supplier>
Chembridge

> <Suplier_CAT#>
7601634

> <Name>
Novel

> <Concentration_(mM)>
2.5

> <IC50_(µM)>
inactive

> <Yeast_Active?>
-

> <Pubchem_CID>
NULL

$$$$
