
  -ISIS-  08130814242D

 25 27  0  0  0  0  0  0  0  0999 V2000
   -1.3833   -0.0875    0.0000 C   0  0  0  0  0  0  0  0  0  0  0  0
   -0.9000   -0.8792    0.0000 N   0  0  0  0  0  0  0  0  0  0  0  0
   -2.3125   -0.0875    0.0000 C   0  0  0  0  0  0  0  0  0  0  0  0
    0.0042   -0.8792    0.0000 C   0  0  3  0  0  0  0  0  0  0  0  0
    0.4542   -0.0917    0.0000 C   0  0  0  0  0  0  0  0  0  0  0  0
   -2.7833    0.6833    0.0000 C   0  0  0  0  0  0  0  0  0  0  0  0
   -0.9458    0.7208    0.0000 O   0  0  0  0  0  0  0  0  0  0  0  0
    0.4667   -1.6667    0.0000 C   0  0  0  0  0  0  0  0  0  0  0  0
    1.3667   -0.0917    0.0000 O   0  0  0  0  0  0  0  0  0  0  0  0
   -3.7000    0.6708    0.0000 C   0  0  0  0  0  0  0  0  0  0  0  0
   -0.0125    0.6708    0.0000 O   0  0  0  0  0  0  0  0  0  0  0  0
    1.3792   -1.6542    0.0000 C   0  0  0  0  0  0  0  0  0  0  0  0
   -2.7625   -0.9167    0.0000 C   0  0  0  0  0  0  0  0  0  0  0  0
   -2.3458    1.5000    0.0000 C   0  0  0  0  0  0  0  0  0  0  0  0
   -3.6833   -0.9167    0.0000 C   0  0  0  0  0  0  0  0  0  0  0  0
   -4.1583   -0.1292    0.0000 C   0  0  0  0  0  0  0  0  0  0  0  0
   -4.1833    1.4625    0.0000 C   0  0  0  0  0  0  0  0  0  0  0  0
    0.4375    1.4625    0.0000 C   0  0  0  0  0  0  0  0  0  0  0  0
    1.8500   -2.4375    0.0000 C   0  0  0  0  0  0  0  0  0  0  0  0
    1.8292   -0.8542    0.0000 C   0  0  0  0  0  0  0  0  0  0  0  0
   -2.8000    2.2833    0.0000 C   0  0  0  0  0  0  0  0  0  0  0  0
   -3.7333    2.2708    0.0000 C   0  0  0  0  0  0  0  0  0  0  0  0
    2.7500   -0.8375    0.0000 C   0  0  0  0  0  0  0  0  0  0  0  0
    2.7667   -2.4292    0.0000 C   0  0  0  0  0  0  0  0  0  0  0  0
    3.2167   -1.6292    0.0000 C   0  0  0  0  0  0  0  0  0  0  0  0
  2  1  1  0  0  0  0
  3  1  1  0  0  0  0
  4  2  1  0  0  0  0
  5  4  1  0  0  0  0
  6  3  1  0  0  0  0
  7  1  2  0  0  0  0
  8  4  1  0  0  0  0
  9  5  2  0  0  0  0
 10  6  2  0  0  0  0
 11  5  1  0  0  0  0
 12  8  1  0  0  0  0
 13  3  2  0  0  0  0
 14  6  1  0  0  0  0
 15 13  1  0  0  0  0
 16 15  2  0  0  0  0
 17 10  1  0  0  0  0
 18 11  1  0  0  0  0
 19 12  2  0  0  0  0
 20 12  1  0  0  0  0
 21 14  2  0  0  0  0
 22 21  1  0  0  0  0
 23 20  2  0  0  0  0
 24 19  1  0  0  0  0
 25 23  1  0  0  0  0
 10 16  1  0  0  0  0
 17 22  2  0  0  0  0
 24 25  2  0  0  0  0
M  END
> <#>
1912

> <PLATE>
LAT024

> <ROW>
H

> <COL>
10

> <COORD>
H10

> <LATID>
LAT024H10

> <Supplier>
Chembridge

> <Suplier_CAT#>
5476778

> <Name>
Novel

> <Sec_Name>
139_C05

> <Concentration_(mM)>
2.5

> <IC50_(µM)>
28

> <Yeast_Active?>
-

> <Pubchem_CID>
736754

$$$$
