
  -ISIS-  08130814242D

 24 25  0  0  0  0  0  0  0  0999 V2000
    8.6507   -3.1872    0.0000 C   0  0  0  0  0  0  0  0  0  0  0  0
    9.3611   -3.5998    0.0000 C   0  0  0  0  0  0  0  0  0  0  0  0
   10.0715   -3.1910    0.0000 C   0  0  0  0  0  0  0  0  0  0  0  0
   10.0727   -2.3697    0.0000 C   0  0  0  0  0  0  0  0  0  0  0  0
    9.3577   -1.9590    0.0000 C   0  0  0  0  0  0  0  0  0  0  0  0
    8.6502   -2.3702    0.0000 C   0  0  0  0  0  0  0  0  0  0  0  0
    7.9333   -3.5958    0.0000 C   0  0  3  0  0  0  0  0  0  0  0  0
    7.2167   -4.0042    0.0000 C   0  0  0  0  0  0  0  0  0  0  0  0
    7.2120   -4.8244    0.0000 C   0  0  0  0  0  0  0  0  0  0  0  0
    7.9223   -5.2426    0.0000 C   0  0  0  0  0  0  0  0  0  0  0  0
    8.6389   -4.8342    0.0000 C   0  0  0  0  0  0  0  0  0  0  0  0
    8.6453   -4.0078    0.0000 C   0  0  0  0  0  0  0  0  0  0  0  0
    2.9500   -2.3583    0.0000 O   0  0  0  0  0  0  0  0  0  0  0  0
    2.9500   -3.1833    0.0000 C   0  0  0  0  0  0  0  0  0  0  0  0
    3.6620   -3.5917    0.0000 C   0  0  0  0  0  0  0  0  0  0  0  0
    4.3740   -3.1833    0.0000 N   0  0  3  0  0  0  0  0  0  0  0  0
    4.3740   -2.3583    0.0000 C   0  0  0  0  0  0  0  0  0  0  0  0
    3.6620   -1.9417    0.0000 C   0  0  0  0  0  0  0  0  0  0  0  0
    5.0833   -3.5958    0.0000 C   0  0  0  0  0  0  0  0  0  0  0  0
    5.7958   -3.1833    0.0000 C   0  0  0  0  0  0  0  0  0  0  0  0
    6.5083   -3.5958    0.0000 O   0  0  0  0  0  0  0  0  0  0  0  0
    7.2208   -3.1833    0.0000 C   0  0  0  0  0  0  0  0  0  0  0  0
    7.2208   -2.3583    0.0000 O   0  0  0  0  0  0  0  0  0  0  0  0
    4.3875   -4.6708    0.0000 Cl  0  0  0  0  0  0  0  0  0  0  0  0
 10 11  1  0  0  0  0
 11 12  1  0  0  0  0
 13 14  1  0  0  0  0
  5  6  2  0  0  0  0
  6  1  1  0  0  0  0
  7  8  1  0  0  0  0
  2  3  1  0  0  0  0
  3  4  2  0  0  0  0
 13 18  1  0  0  0  0
 14 15  1  0  0  0  0
 15 16  1  0  0  0  0
 16 17  1  0  0  0  0
 17 18  1  0  0  0  0
  1  2  2  0  0  0  0
 16 19  1  0  0  0  0
  4  5  1  0  0  0  0
 19 20  1  0  0  0  0
 20 21  1  0  0  0  0
  7 12  1  0  0  0  0
 21 22  1  0  0  0  0
 22  7  1  0  0  0  0
  8  9  1  0  0  0  0
 22 23  2  0  0  0  0
  7  1  1  0  0  0  0
  9 10  1  0  0  0  0
M  END
> <#>
264

> <PLATE>
LAT004

> <ROW>
H

> <COL>
4

> <COORD>
H04

> <LATID>
LAT004H04

> <Supplier>
Sigma

> <Suplier_CAT#>
P 2607

> <Name>
PRE-084

> <Concentration_(mM)>
2.5

> <IC50_(µM)>
>100

> <Yeast_Active?>
-

> <Pubchem_CID>
48083

> <Description>
Potent and highly selective sigma1 receptor agonist

$$$$
