
  -ISIS-  08130814242D

 19 21  0  0  0  0  0  0  0  0999 V2000
   -2.0458    0.7833    0.0000 C   0  0  0  0  0  0  0  0  0  0  0  0
   -2.5625    0.0458    0.0000 N   0  0  0  0  0  0  0  0  0  0  0  0
   -2.5625    1.5000    0.0000 N   0  0  0  0  0  0  0  0  0  0  0  0
   -3.4208    0.3208    0.0000 C   0  0  0  0  0  0  0  0  0  0  0  0
   -3.4208    1.2208    0.0000 C   0  0  0  0  0  0  0  0  0  0  0  0
   -1.1458    0.7833    0.0000 S   0  0  0  0  0  0  0  0  0  0  0  0
   -0.6833    0.0000    0.0000 C   0  0  0  0  0  0  0  0  0  0  0  0
    0.2375    0.0000    0.0000 C   0  0  0  0  0  0  0  0  0  0  0  0
    2.0375    0.0000    0.0000 C   0  0  0  0  0  0  0  0  0  0  0  0
    0.6792    0.7833    0.0000 C   0  0  0  0  0  0  0  0  0  0  0  0
    0.6792   -0.7792    0.0000 C   0  0  0  0  0  0  0  0  0  0  0  0
    1.6000   -0.7792    0.0000 C   0  0  0  0  0  0  0  0  0  0  0  0
    1.6000    0.7833    0.0000 C   0  0  0  0  0  0  0  0  0  0  0  0
    2.9542    0.0000    0.0000 O   0  0  0  0  0  0  0  0  0  0  0  0
   -4.2083   -0.1375    0.0000 C   0  0  0  0  0  0  0  0  0  0  0  0
   -4.2083    1.6833    0.0000 C   0  0  0  0  0  0  0  0  0  0  0  0
    3.4000   -0.7792    0.0000 C   0  0  0  0  0  0  0  0  0  0  0  0
   -4.9833    1.2208    0.0000 C   0  0  0  0  0  0  0  0  0  0  0  0
   -4.9833    0.3208    0.0000 C   0  0  0  0  0  0  0  0  0  0  0  0
  2  1  2  0  0  0  0
  3  1  1  0  0  0  0
  4  2  1  0  0  0  0
  5  3  1  0  0  0  0
  6  1  1  0  0  0  0
  7  6  1  0  0  0  0
  8  7  1  0  0  0  0
  9 12  1  0  0  0  0
 10  8  2  0  0  0  0
 11  8  1  0  0  0  0
 12 11  2  0  0  0  0
 13 10  1  0  0  0  0
 14  9  1  0  0  0  0
 15  4  1  0  0  0  0
 16  5  1  0  0  0  0
 17 14  1  0  0  0  0
 18 16  2  0  0  0  0
 19 15  2  0  0  0  0
  4  5  2  0  0  0  0
 18 19  1  0  0  0  0
 13  9  2  0  0  0  0
M  END
> <#>
1923

> <PLATE>
LAT025

> <ROW>
C

> <COL>
2

> <COORD>
C02

> <LATID>
LAT025C02

> <Supplier>
Chembridge

> <Suplier_CAT#>
5568705

> <Name>
Novel

> <Sec_Name>
174_G05

> <Concentration_(mM)>
2.5

> <IC50_(µM)>
27

> <Yeast_Active?>
-

> <Pubchem_CID>
NULL

$$$$
