
  -ISIS-  08130814242D

 24 26  0  0  0  0  0  0  0  0999 V2000
    2.6125    1.6625    0.0000 C   0  0  0  0  0  0  0  0  0  0  0  0
    3.0542    1.0583    0.0000 N   0  0  0  0  0  0  0  0  0  0  0  0
    3.0542    2.2708    0.0000 N   0  0  0  0  0  0  0  0  0  0  0  0
    3.7667    1.2875    0.0000 C   0  0  0  0  0  0  0  0  0  0  0  0
    3.7667    2.0375    0.0000 N   0  0  0  0  0  0  0  0  0  0  0  0
    1.8625    1.6625    0.0000 C   0  0  0  0  0  0  0  0  0  0  0  0
    6.3500    1.0125    0.0000 C   0  0  0  0  0  0  0  0  0  0  0  0
    6.9542    0.5750    0.0000 C   0  0  0  0  0  0  0  0  0  0  0  0
    7.6417    0.8833    0.0000 C   0  0  0  0  0  0  0  0  0  0  0  0
    5.6667    0.7083    0.0000 C   0  0  0  0  0  0  0  0  0  0  0  0
    4.3750    0.8458    0.0000 S   0  0  0  0  0  0  0  0  0  0  0  0
    1.4875    2.3125    0.0000 C   0  0  0  0  0  0  0  0  0  0  0  0
    7.7167    1.6250    0.0000 C   0  0  0  0  0  0  0  0  0  0  0  0
    5.0542    1.1500    0.0000 C   0  0  0  0  0  0  0  0  0  0  0  0
    6.4292    1.7583    0.0000 C   0  0  0  0  0  0  0  0  0  0  0  0
    5.5875   -0.0292    0.0000 O   0  0  0  0  0  0  0  0  0  0  0  0
    7.1167    2.0708    0.0000 C   0  0  0  0  0  0  0  0  0  0  0  0
    1.8625    2.9583    0.0000 Cl  0  0  0  0  0  0  0  0  0  0  0  0
    8.2500    0.4375    0.0000 O   0  0  0  0  0  0  0  0  0  0  0  0
    8.4042    1.9333    0.0000 O   0  0  0  0  0  0  0  0  0  0  0  0
    1.4875    1.0125    0.0000 C   0  0  0  0  0  0  0  0  0  0  0  0
    0.7375    2.3125    0.0000 C   0  0  0  0  0  0  0  0  0  0  0  0
    0.7375    1.0125    0.0000 C   0  0  0  0  0  0  0  0  0  0  0  0
    0.3625    1.6625    0.0000 C   0  0  0  0  0  0  0  0  0  0  0  0
  2  1  1  0  0  0  0
  3  1  2  0  0  0  0
  4  2  1  0  0  0  0
  5  3  1  0  0  0  0
  6  1  1  0  0  0  0
  7 10  1  0  0  0  0
  8  7  2  0  0  0  0
  9  8  1  0  0  0  0
 10 14  1  0  0  0  0
 11  4  1  0  0  0  0
 12  6  2  0  0  0  0
 13 17  1  0  0  0  0
 14 11  1  0  0  0  0
 15  7  1  0  0  0  0
 16 10  2  0  0  0  0
 17 15  2  0  0  0  0
 18 12  1  0  0  0  0
 19  9  1  0  0  0  0
 20 13  1  0  0  0  0
 21  6  1  0  0  0  0
 22 12  1  0  0  0  0
 23 21  2  0  0  0  0
 24 23  1  0  0  0  0
  5  4  2  0  0  0  0
 24 22  2  0  0  0  0
 13  9  2  0  0  0  0
M  END
> <#>
1386

> <PLATE>
LAT018

> <ROW>
B

> <COL>
5

> <COORD>
B05

> <LATID>
LAT018B05

> <Supplier>
Chembridge

> <Suplier_CAT#>
7919477

> <Name>
Novel

> <Concentration_(mM)>
2.5

> <IC50_(µM)>
inactive

> <Yeast_Active?>
-

> <Pubchem_CID>
NULL

$$$$
