
  -ISIS-  08130814242D

 22 24  0  0  0  0  0  0  0  0999 V2000
   -0.6708   -0.3875    0.0000 N   0  0  3  0  0  0  0  0  0  0  0  0
   -1.4625    0.1708    0.0000 C   0  0  0  0  0  0  0  0  0  0  0  0
    0.0542    0.1625    0.0000 N   0  0  0  0  0  0  0  0  0  0  0  0
   -1.1708    1.0625    0.0000 C   0  0  3  0  0  0  0  0  0  0  0  0
   -0.2208    1.0625    0.0000 C   0  0  0  0  0  0  0  0  0  0  0  0
   -1.6500    1.8833    0.0000 N   0  0  0  0  0  0  0  0  0  0  0  0
   -2.5833    1.8708    0.0000 N   0  0  0  0  0  0  0  0  0  0  0  0
   -2.3833   -0.1292    0.0000 O   0  0  0  0  0  0  0  0  0  0  0  0
   -0.7000   -1.3375    0.0000 C   0  0  0  0  0  0  0  0  0  0  0  0
   -3.0833    2.7083    0.0000 C   0  0  0  0  0  0  0  0  0  0  0  0
    0.3542    1.8458    0.0000 C   0  0  0  0  0  0  0  0  0  0  0  0
   -4.0458    4.3375    0.0000 C   0  0  0  0  0  0  0  0  0  0  0  0
   -2.6125    3.5458    0.0000 C   0  0  0  0  0  0  0  0  0  0  0  0
   -4.0208    2.6833    0.0000 C   0  0  0  0  0  0  0  0  0  0  0  0
   -4.5000    3.5000    0.0000 C   0  0  0  0  0  0  0  0  0  0  0  0
   -3.1000    4.3417    0.0000 C   0  0  0  0  0  0  0  0  0  0  0  0
    0.1000   -1.8500    0.0000 C   0  0  0  0  0  0  0  0  0  0  0  0
   -1.5458   -1.7667    0.0000 C   0  0  0  0  0  0  0  0  0  0  0  0
   -4.5458    5.1500    0.0000 C   0  0  0  0  0  0  0  0  0  0  0  0
    0.0500   -2.8042    0.0000 C   0  0  0  0  0  0  0  0  0  0  0  0
   -1.5833   -2.7167    0.0000 C   0  0  0  0  0  0  0  0  0  0  0  0
   -0.7708   -3.2292    0.0000 C   0  0  0  0  0  0  0  0  0  0  0  0
  2  1  1  0  0  0  0
  3  1  1  0  0  0  0
  4  2  1  0  0  0  0
  5  3  2  0  0  0  0
  6  4  1  0  0  0  0
  7  6  2  0  0  0  0
  8  2  2  0  0  0  0
  9  1  1  0  0  0  0
 10  7  1  0  0  0  0
 11  5  1  0  0  0  0
 12 15  2  0  0  0  0
 13 10  1  0  0  0  0
 14 10  2  0  0  0  0
 15 14  1  0  0  0  0
 16 13  2  0  0  0  0
 17  9  2  0  0  0  0
 18  9  1  0  0  0  0
 19 12  1  0  0  0  0
 20 17  1  0  0  0  0
 21 18  2  0  0  0  0
 22 21  1  0  0  0  0
  5  4  1  0  0  0  0
 22 20  2  0  0  0  0
 12 16  1  0  0  0  0
M  END
> <#>
1055

> <PLATE>
LAT014

> <ROW>
G

> <COL>
3

> <COORD>
G03

> <LATID>
LAT014G03

> <Supplier>
Chembridge

> <Suplier_CAT#>
5122844

> <Name>
Novel

> <Concentration_(mM)>
2.5

> <IC50_(µM)>
inactive

> <Yeast_Active?>
-

> <Pubchem_CID>
2828942

$$$$
