
  -ISIS-  08130814242D

 30 35  0  0  0  0  0  0  0  0999 V2000
   -5.7140    1.2822    0.0000 C   0  0  0  0  0  0  0  0  0  0  0  0
   -4.4709    1.4129    0.0000 C   0  0  3  0  0  0  0  0  0  0  0  0
   -3.9625    2.5548    0.0000 C   0  0  0  0  0  0  0  0  0  0  0  0
   -2.7193    2.6855    0.0000 C   0  0  0  0  0  0  0  0  0  0  0  0
   -1.9846    1.6742    0.0000 C   0  0  3  0  0  0  0  0  0  0  0  0
   -1.1482    0.7453    0.0000 C   0  0  3  0  0  0  0  0  0  0  0  0
   -0.0062    1.2537    0.0000 C   0  0  3  0  0  0  0  0  0  0  0  0
   -0.1369    2.4968    0.0000 C   0  0  3  0  0  0  0  0  0  0  0  0
   -1.3596    2.7567    0.0000 O   0  0  0  0  0  0  0  0  0  0  0  0
    1.0050    3.0052    0.0000 C   0  0  0  0  0  0  0  0  0  0  0  0
    1.8415    2.0763    0.0000 C   0  0  3  0  0  0  0  0  0  0  0  0
    1.2165    0.9938    0.0000 C   0  0  3  0  0  0  0  0  0  0  0  0
    1.8415   -0.0887    0.0000 C   0  0  0  0  0  0  0  0  0  0  0  0
    3.0915   -0.0887    0.0000 C   0  0  0  0  0  0  0  0  0  0  0  0
    3.7165    0.9938    0.0000 C   0  0  3  0  0  0  0  0  0  0  0  0
    3.0915    2.0763    0.0000 C   0  0  3  0  0  0  0  0  0  0  0  0
    3.7165    3.1588    0.0000 C   0  0  0  0  0  0  0  0  0  0  0  0
    4.9665    3.1588    0.0000 C   0  0  0  0  0  0  0  0  0  0  0  0
    5.5915    2.0763    0.0000 C   0  0  0  0  0  0  0  0  0  0  0  0
    4.9665    0.9938    0.0000 C   0  0  3  0  0  0  0  0  0  0  0  0
    5.5915   -0.0887    0.0000 C   0  0  0  0  0  0  0  0  0  0  0  0
    6.8415   -0.0887    0.0000 C   0  0  0  0  0  0  0  0  0  0  0  0
    7.4665    0.9938    0.0000 C   0  0  3  0  0  0  0  0  0  0  0  0
    6.8415    2.0763    0.0000 C   0  0  0  0  0  0  0  0  0  0  0  0
    8.7165    0.9938    0.0000 O   0  0  0  0  0  0  0  0  0  0  0  0
    4.3415   -0.0887    0.0000 C   0  0  0  0  0  0  0  0  0  0  0  0
    0.4817   -0.0175    0.0000 C   0  0  0  0  0  0  0  0  0  0  0  0
   -1.4080   -0.4774    0.0000 C   0  0  0  0  0  0  0  0  0  0  0  0
   -2.4930    0.5323    0.0000 O   0  0  0  0  0  0  0  0  0  0  0  0
   -3.7361    0.4016    0.0000 C   0  0  0  0  0  0  0  0  0  0  0  0
  1  2  1  0  0  0  0
  2  3  1  0  0  0  0
  3  4  1  0  0  0  0
  4  5  1  0  0  0  0
  5  6  1  0  0  0  0
  6  7  1  0  0  0  0
  7  8  1  0  0  0  0
  8  9  1  0  0  0  0
  5  9  1  0  0  0  0
  8 10  1  0  0  0  0
 10 11  1  0  0  0  0
 11 12  1  0  0  0  0
  7 12  1  0  0  0  0
 12 13  1  0  0  0  0
 13 14  1  0  0  0  0
 14 15  1  0  0  0  0
 15 16  1  0  0  0  0
 11 16  1  0  0  0  0
 16 17  1  0  0  0  0
 17 18  1  0  0  0  0
 18 19  2  0  0  0  0
 19 20  1  0  0  0  0
 15 20  1  0  0  0  0
 20 21  1  0  0  0  0
 21 22  1  0  0  0  0
 22 23  1  0  0  0  0
 23 24  1  0  0  0  0
 19 24  1  0  0  0  0
 23 25  1  0  0  0  0
 20 26  1  0  0  0  0
 12 27  1  0  0  0  0
  6 28  1  0  0  0  0
  5 29  1  0  0  0  0
 29 30  1  0  0  0  0
  2 30  1  0  0  0  0
M  END
> <#>
397

> <PLATE>
LAT005

> <ROW>
E

> <COL>
11

> <COORD>
E11

> <LATID>
LAT005E11

> <Supplier>
Sigma

> <Suplier_CAT#>
D-1634

> <Name>
Diosgenin

> <Concentration_(mM)>
2.5

> <IC50_(µM)>
inactive

> <Yeast_Active?>
-

> <Pubchem_CID>
10536

$$$$
