
  -ISIS-  08130814242D

 19 20  0  0  0  0  0  0  0  0999 V2000
    2.0000   -2.1042    0.0000 C   0  0  0  0  0  0  0  0  0  0  0  0
    2.0000   -1.4042    0.0000 C   0  0  0  0  0  0  0  0  0  0  0  0
    1.4000   -1.1000    0.0000 C   0  0  0  0  0  0  0  0  0  0  0  0
    2.6000   -2.4500    0.0000 C   0  0  0  0  0  0  0  0  0  0  0  0
    1.4000   -2.4500    0.0000 C   0  0  0  0  0  0  0  0  0  0  0  0
    0.8000   -1.4042    0.0000 C   0  0  0  0  0  0  0  0  0  0  0  0
    3.2000   -2.1042    0.0000 C   0  0  0  0  0  0  0  0  0  0  0  0
    2.6000   -3.1500    0.0000 O   0  0  0  0  0  0  0  0  0  0  0  0
    0.8000   -2.1042    0.0000 C   0  0  0  0  0  0  0  0  0  0  0  0
    2.1917   -1.2542    0.0000 O   0  0  0  0  0  0  0  0  0  0  0  0
    3.2000   -1.4500    0.0000 C   0  0  0  0  0  0  0  0  0  0  0  0
    3.2000   -0.0667    0.0000 C   0  0  0  0  0  0  0  0  0  0  0  0
    0.2000   -1.0500    0.0000 O   0  0  0  0  0  0  0  0  0  0  0  0
    3.2042    0.6000    0.0000 F   0  0  0  0  0  0  0  0  0  0  0  0
    3.8000   -1.1000    0.0000 C   0  0  0  0  0  0  0  0  0  0  0  0
    2.6000   -1.1000    0.0000 C   0  0  0  0  0  0  0  0  0  0  0  0
    1.4000   -0.4000    0.0000 C   0  0  0  0  0  0  0  0  0  0  0  0
    3.8000   -0.4042    0.0000 C   0  0  0  0  0  0  0  0  0  0  0  0
    2.6000   -0.4042    0.0000 C   0  0  0  0  0  0  0  0  0  0  0  0
  2  1  2  0  0  0  0
  3  2  1  0  0  0  0
  4  1  1  0  0  0  0
  5  1  1  0  0  0  0
  6  9  1  0  0  0  0
  7  4  1  0  0  0  0
  8  4  2  0  0  0  0
  9  5  2  0  0  0  0
 10  2  1  0  0  0  0
 11  7  1  0  0  0  0
 12 19  2  0  0  0  0
 13  6  1  0  0  0  0
 14 12  1  0  0  0  0
 15 11  1  0  0  0  0
 16 11  2  0  0  0  0
 17  3  1  0  0  0  0
 18 15  2  0  0  0  0
 19 16  1  0  0  0  0
  3  6  2  0  0  0  0
 12 18  1  0  0  0  0
M  END
> <#>
1284

> <PLATE>
LAT017

> <ROW>
D

> <COL>
2

> <COORD>
D02

> <LATID>
LAT017D02

> <Supplier>
Chembridge

> <Suplier_CAT#>
6688116

> <Name>
Novel

> <Concentration_(mM)>
2.5

> <IC50_(µM)>
9.7

> <Yeast_Active?>
+

> <Pubchem_CID>
640110

$$$$
