
  -ISIS-  08130814242D

 22 24  0  0  0  0  0  0  0  0999 V2000
   -1.8708    1.2708    0.0000 C   0  0  0  0  0  0  0  0  0  0  0  0
   -0.9500    1.0208    0.0000 C   0  0  3  0  0  0  0  0  0  0  0  0
   -2.6500    0.6833    0.0000 N   0  0  3  0  0  0  0  0  0  0  0  0
   -2.2000    2.1708    0.0000 N   0  0  0  0  0  0  0  0  0  0  0  0
   -3.1625    2.1708    0.0000 C   0  0  0  0  0  0  0  0  0  0  0  0
   -0.0458    0.7708    0.0000 C   0  0  0  0  0  0  0  0  0  0  0  0
   -3.4500    1.2333    0.0000 C   0  0  0  0  0  0  0  0  0  0  0  0
   -0.6958    1.9458    0.0000 C   0  0  0  0  0  0  0  0  0  0  0  0
    0.2375   -0.1542    0.0000 C   0  0  0  0  0  0  0  0  0  0  0  0
    0.6000    1.4458    0.0000 C   0  0  0  0  0  0  0  0  0  0  0  0
   -1.2000    0.1000    0.0000 O   0  0  0  0  0  0  0  0  0  0  0  0
    1.1500   -0.3667    0.0000 C   0  0  0  0  0  0  0  0  0  0  0  0
    1.5375    1.2208    0.0000 C   0  0  0  0  0  0  0  0  0  0  0  0
    1.8000    0.3208    0.0000 C   0  0  0  0  0  0  0  0  0  0  0  0
   -2.6500   -0.2875    0.0000 C   0  0  0  0  0  0  0  0  0  0  0  0
   -1.3625    2.5958    0.0000 C   0  0  0  0  0  0  0  0  0  0  0  0
    0.2500    2.2083    0.0000 C   0  0  0  0  0  0  0  0  0  0  0  0
    2.7167    0.1125    0.0000 C   0  0  0  0  0  0  0  0  0  0  0  0
   -3.4500   -0.7542    0.0000 C   0  0  0  0  0  0  0  0  0  0  0  0
   -1.1208    3.5333    0.0000 C   0  0  0  0  0  0  0  0  0  0  0  0
    0.4667    3.1125    0.0000 C   0  0  0  0  0  0  0  0  0  0  0  0
   -0.2125    3.7958    0.0000 C   0  0  0  0  0  0  0  0  0  0  0  0
  2  1  1  0  0  0  0
  3  1  1  0  0  0  0
  4  1  2  0  0  0  0
  5  4  1  0  0  0  0
  6  2  1  0  0  0  0
  7  3  1  0  0  0  0
  8  2  1  0  0  0  0
  9  6  2  0  0  0  0
 10  6  1  0  0  0  0
 11  2  1  0  0  0  0
 12  9  1  0  0  0  0
 13 10  2  0  0  0  0
 14 13  1  0  0  0  0
 15  3  1  0  0  0  0
 16  8  1  0  0  0  0
 17  8  2  0  0  0  0
 18 14  1  0  0  0  0
 19 15  1  0  0  0  0
 20 16  2  0  0  0  0
 21 17  1  0  0  0  0
 22 21  2  0  0  0  0
  5  7  2  0  0  0  0
 22 20  1  0  0  0  0
 14 12  2  0  0  0  0
M  END
> <#>
1038

> <PLATE>
LAT013

> <ROW>
F

> <COL>
11

> <COORD>
F11

> <LATID>
LAT013F11

> <Supplier>
Chembridge

> <Suplier_CAT#>
6034767

> <Name>
Novel

> <Concentration_(mM)>
2.5

> <IC50_(µM)>
inactive

> <Yeast_Active?>
-

> <Pubchem_CID>
2881215

$$$$
