
  -ISIS-  08130814242D

 33 35  0  0  0  0  0  0  0  0999 V2000
    8.2875   -2.3417    0.0000 S   0  0  3  0  0  0  0  0  0  0  0  0
    9.0375   -2.3417    0.0000 N   0  0  0  0  0  0  0  0  0  0  0  0
    3.0375   -3.6375    0.0000 C   0  0  0  0  0  0  0  0  0  0  0  0
    9.4125   -2.9875    0.0000 C   0  0  0  0  0  0  0  0  0  0  0  0
    3.7875   -3.6375    0.0000 C   0  0  0  0  0  0  0  0  0  0  0  0
    7.5375   -2.3417    0.0000 C   0  0  0  0  0  0  0  0  0  0  0  0
    8.2875   -1.5917    0.0000 O   0  0  0  0  0  0  0  0  0  0  0  0
    8.2875   -3.0917    0.0000 O   0  0  0  0  0  0  0  0  0  0  0  0
    2.6625   -4.2875    0.0000 C   0  0  0  0  0  0  0  0  0  0  0  0
    9.0375   -3.6375    0.0000 N   0  0  0  0  0  0  0  0  0  0  0  0
    2.6625   -2.9917    0.0000 C   0  0  0  0  0  0  0  0  0  0  0  0
   10.1625   -2.9875    0.0000 O   0  0  0  0  0  0  0  0  0  0  0  0
    4.1625   -4.2875    0.0000 O   0  0  0  0  0  0  0  0  0  0  0  0
    4.1625   -2.9875    0.0000 N   0  0  0  0  0  0  0  0  0  0  0  0
    7.1625   -1.6917    0.0000 C   0  0  0  0  0  0  0  0  0  0  0  0
    7.1625   -2.9875    0.0000 C   0  0  0  0  0  0  0  0  0  0  0  0
    1.9125   -4.2875    0.0000 C   0  0  0  0  0  0  0  0  0  0  0  0
    1.9125   -2.9917    0.0000 C   0  0  0  0  0  0  0  0  0  0  0  0
    1.5375   -3.6375    0.0000 C   0  0  0  0  0  0  0  0  0  0  0  0
    6.4125   -2.9875    0.0000 C   0  0  0  0  0  0  0  0  0  0  0  0
    6.4125   -1.6917    0.0000 C   0  0  0  0  0  0  0  0  0  0  0  0
    6.0375   -2.3417    0.0000 C   0  0  0  0  0  0  0  0  0  0  0  0
    1.5250   -2.3375    0.0000 Cl  0  0  0  0  0  0  0  0  0  0  0  0
    9.4125   -4.2792    0.0000 C   0  0  3  0  0  0  0  0  0  0  0  0
    3.0375   -4.9417    0.0000 O   0  0  0  0  0  0  0  0  0  0  0  0
    4.9125   -2.9875    0.0000 C   0  0  0  0  0  0  0  0  0  0  0  0
    5.2875   -2.3417    0.0000 C   0  0  0  0  0  0  0  0  0  0  0  0
    2.6625   -5.5917    0.0000 C   0  0  0  0  0  0  0  0  0  0  0  0
    9.0292   -4.9292    0.0000 C   0  0  0  0  0  0  0  0  0  0  0  0
   10.1625   -4.2792    0.0000 C   0  0  0  0  0  0  0  0  0  0  0  0
   10.5292   -4.9292    0.0000 C   0  0  0  0  0  0  0  0  0  0  0  0
    9.4042   -5.5792    0.0000 C   0  0  0  0  0  0  0  0  0  0  0  0
   10.1542   -5.5792    0.0000 C   0  0  0  0  0  0  0  0  0  0  0  0
  2  1  1  0  0  0  0
  3  5  1  0  0  0  0
  4  2  1  0  0  0  0
  5 14  1  0  0  0  0
  6  1  1  0  0  0  0
  7  1  2  0  0  0  0
  8  1  2  0  0  0  0
  9  3  2  0  0  0  0
 10  4  1  0  0  0  0
 11  3  1  0  0  0  0
 12  4  2  0  0  0  0
 13  5  2  0  0  0  0
 14 26  1  0  0  0  0
 15  6  1  0  0  0  0
 16  6  2  0  0  0  0
 17  9  1  0  0  0  0
 18 11  2  0  0  0  0
 19 18  1  0  0  0  0
 20 16  1  0  0  0  0
 21 15  2  0  0  0  0
 22 20  2  0  0  0  0
 23 18  1  0  0  0  0
 24 10  1  0  0  0  0
 25  9  1  0  0  0  0
 26 27  1  0  0  0  0
 27 22  1  0  0  0  0
 28 25  1  0  0  0  0
 29 24  1  0  0  0  0
 30 24  1  0  0  0  0
 31 30  1  0  0  0  0
 32 29  1  0  0  0  0
 33 31  1  0  0  0  0
 21 22  1  0  0  0  0
 33 32  1  0  0  0  0
 19 17  2  0  0  0  0
M  END
> <#>
169

> <PLATE>
LAT003

> <ROW>
A

> <COL>
3

> <COORD>
A03

> <LATID>
LAT003A03

> <Supplier>
Microsource

> <Suplier_CAT#>
02300229

> <Name>
Glyburide

> <Concentration_(mM)>
2.5

> <IC50_(µM)>
75

> <Yeast_Active?>
-

> <Pubchem_CID>
3488

> <Description>
Antihyperglycemic

$$$$
