
  -ISIS-  08130814242D

 26 27  0  0  0  0  0  0  0  0999 V2000
    4.7625   -1.0292    0.0000 C   0  0  0  0  0  0  0  0  0  0  0  0
   10.0667   -2.7000    0.0000 C   0  0  0  0  0  0  0  0  0  0  0  0
    6.7542    1.7625    0.0000 C   0  0  0  0  0  0  0  0  0  0  0  0
   10.0542    0.6875    0.0000 C   0  0  0  0  0  0  0  0  0  0  0  0
    6.7917   -3.8042    0.0000 S   0  0  0  0  0  0  0  0  0  0  0  0
   12.8667   -4.6917    0.0000 C   0  0  0  0  0  0  0  0  0  0  0  0
    1.2917   -1.0667    0.0000 N   0  0  0  0  0  0  0  0  0  0  0  0
   -0.4458    1.8833    0.0000 C   0  0  0  0  0  0  0  0  0  0  0  0
    7.0417    5.2042    0.0000 C   0  0  0  0  0  0  0  0  0  0  0  0
   12.5417   -8.1125    0.0000 N   0  0  3  0  0  0  0  0  0  0  0  0
    1.2917    4.8417    0.0000 S   0  0  0  0  0  0  0  0  0  0  0  0
   -3.8958    1.8833    0.0000 N   0  0  0  0  0  0  0  0  0  0  0  0
   16.0000   -3.2667    0.0000 O   0  0  0  0  0  0  0  0  0  0  0  0
  -10.8625    7.7542    0.0000 N   0  0  0  0  0  0  0  0  0  0  0  0
    4.2167    7.1750    0.0000 O   0  0  0  0  0  0  0  0  0  0  0  0
   12.8292    2.7125    0.0000 C   0  0  0  0  0  0  0  0  0  0  0  0
   -9.0625    4.8042    0.0000 C   0  0  0  0  0  0  0  0  0  0  0  0
   10.1417    6.6875    0.0000 O   0  0  0  0  0  0  0  0  0  0  0  0
   -5.6333    4.8292    0.0000 C   0  0  0  0  0  0  0  0  0  0  0  0
    9.4125   -9.5417    0.0000 C   0  0  0  0  0  0  0  0  0  0  0  0
   15.3375  -10.1125    0.0000 C   0  0  0  0  0  0  0  0  0  0  0  0
  -14.3000    7.6917    0.0000 C   0  0  0  0  0  0  0  0  0  0  0  0
  -10.7542    1.8458    0.0000 C   0  0  0  0  0  0  0  0  0  0  0  0
   10.4375   10.1125    0.0000 C   0  0  0  0  0  0  0  0  0  0  0  0
  -16.0000    4.7042    0.0000 C   0  0  0  0  0  0  0  0  0  0  0  0
  -14.1917    1.7833    0.0000 C   0  0  0  0  0  0  0  0  0  0  0  0
  2  5  1  0  0  0  0
  3  1  2  0  0  0  0
  4  3  1  0  0  0  0
  5  1  1  0  0  0  0
  6  2  1  0  0  0  0
  7  1  1  0  0  0  0
  8  7  1  0  0  0  0
  9  3  1  0  0  0  0
 10  6  1  0  0  0  0
 11  8  2  0  0  0  0
 12  8  1  0  0  0  0
 13  6  2  0  0  0  0
 14 17  2  0  0  0  0
 15  9  2  0  0  0  0
 16  4  1  0  0  0  0
 17 19  1  0  0  0  0
 18  9  1  0  0  0  0
 19 12  1  0  0  0  0
 20 10  1  0  0  0  0
 21 10  1  0  0  0  0
 22 14  1  0  0  0  0
 23 17  1  0  0  0  0
 24 18  1  0  0  0  0
 25 26  1  0  0  0  0
 26 23  2  0  0  0  0
  2  4  2  0  0  0  0
 25 22  2  0  0  0  0
M  END
> <#>
1437

> <PLATE>
LAT018

> <ROW>
E

> <COL>
11

> <COORD>
E11

> <LATID>
LAT018E11

> <Supplier>
Chembridge

> <Suplier_CAT#>
7824190

> <Name>
Novel

> <Concentration_(mM)>
2.5

> <IC50_(µM)>
>100

> <Yeast_Active?>
-

> <Pubchem_CID>
1298384

$$$$
