
  -ISIS-  08130814242D

 17 18  0  0  0  0  0  0  0  0999 V2000
    4.9875    1.9625    0.0000 C   0  0  0  0  0  0  0  0  0  0  0  0
    4.3375    1.5875    0.0000 C   0  0  0  0  0  0  0  0  0  0  0  0
    3.6875    1.9625    0.0000 N   0  0  0  0  0  0  0  0  0  0  0  0
    5.6292    1.5875    0.0000 C   0  0  0  0  0  0  0  0  0  0  0  0
    2.3792    2.7125    0.0000 N   0  0  0  0  0  0  0  0  0  0  0  0
    4.3375    0.8375    0.0000 O   0  0  0  0  0  0  0  0  0  0  0  0
    3.0375    1.5875    0.0000 C   0  0  0  0  0  0  0  0  0  0  0  0
    2.3792    1.9625    0.0000 C   0  0  0  0  0  0  0  0  0  0  0  0
    5.6292    0.8375    0.0000 O   0  0  0  0  0  0  0  0  0  0  0  0
    4.9875    2.7125    0.0000 C   0  0  0  0  0  0  0  0  0  0  0  0
    1.7375    3.0875    0.0000 C   0  0  0  0  0  0  0  0  0  0  0  0
    6.2792    1.9625    0.0000 C   0  0  0  0  0  0  0  0  0  0  0  0
    1.7375    1.5875    0.0000 C   0  0  0  0  0  0  0  0  0  0  0  0
    5.6292    3.0875    0.0000 C   0  0  0  0  0  0  0  0  0  0  0  0
    1.0875    2.7125    0.0000 C   0  0  0  0  0  0  0  0  0  0  0  0
    6.2792    2.7125    0.0000 C   0  0  0  0  0  0  0  0  0  0  0  0
    1.0875    1.9625    0.0000 C   0  0  0  0  0  0  0  0  0  0  0  0
  2  1  1  0  0  0  0
  3  2  1  0  0  0  0
  4  1  2  0  0  0  0
  5  8  2  0  0  0  0
  6  2  2  0  0  0  0
  7  3  1  0  0  0  0
  8  7  1  0  0  0  0
  9  4  1  0  0  0  0
 10  1  1  0  0  0  0
 11  5  1  0  0  0  0
 12  4  1  0  0  0  0
 13  8  1  0  0  0  0
 14 10  2  0  0  0  0
 15 17  1  0  0  0  0
 16 14  1  0  0  0  0
 17 13  2  0  0  0  0
 16 12  2  0  0  0  0
 15 11  2  0  0  0  0
M  END
> <#>
1576

> <PLATE>
LAT020

> <ROW>
H

> <COL>
8

> <COORD>
H08

> <LATID>
LAT020H08

> <Supplier>
Chembridge

> <Suplier_CAT#>
7956465

> <Name>
Novel

> <Concentration_(mM)>
2.5

> <IC50_(µM)>
inactive

> <Yeast_Active?>
-

> <Pubchem_CID>
778091

$$$$
