
  -ISIS-  08130814242D

 10 10  0  0  0  0  0  0  0  0999 V2000
   -3.1844   -0.1667    0.0000 O   0  0  0  0  0  0  0  0  0  0  0  0
   -2.1031   -0.7938    0.0000 C   0  0  0  0  0  0  0  0  0  0  0  0
   -1.0094   -0.1636    0.0000 C   0  0  1  0  0  0  0  0  0  0  0  0
    0.0989   -0.7894    0.0000 O   0  0  0  0  0  0  0  0  0  0  0  0
   -1.0104    1.0819    0.0000 C   0  0  2  0  0  0  0  0  0  0  0  0
    0.0979    1.7061    0.0000 O   0  0  0  0  0  0  0  0  0  0  0  0
   -2.1021    1.7119    0.0000 C   0  0  2  0  0  0  0  0  0  0  0  0
   -2.1063    2.9660    0.0000 O   0  0  0  0  0  0  0  0  0  0  0  0
   -3.1872    1.0845    0.0000 C   0  0  3  0  0  0  0  0  0  0  0  0
   -4.2789    1.7228    0.0000 O   0  0  0  0  0  0  0  0  0  0  0  0
  1  2  1  0  0  0  0
  2  3  1  0  0  0  0
  3  4  1  6  0  0  0
  3  5  1  0  0  0  0
  5  6  1  1  0  0  0
  5  7  1  0  0  0  0
  7  8  1  1  0  0  0
  7  9  1  0  0  0  0
  9 10  1  0  0  0  0
  1  9  1  0  0  0  0
M  END
> <#>
425

> <PLATE>
LAT006

> <ROW>
A

> <COL>
5

> <COORD>
A05

> <LATID>
LAT006A05

> <Supplier>
Nutirional Biochemicals

> <Suplier_CAT#>
Ribose

> <Name>
Ribose

> <Concentration_(mM)>
2.5

> <IC50_(µM)>
inactive

> <Yeast_Active?>
-

> <Pubchem_CID>
229

$$$$
