
  -ISIS-  08130814242D

 25 27  0  0  0  0  0  0  0  0999 V2000
   -3.2500   -1.3292    0.0000 N   0  0  0  0  0  0  0  0  0  0  0  0
   -2.5125   -0.0667    0.0000 C   0  0  0  0  0  0  0  0  0  0  0  0
   -2.5125   -0.9042    0.0000 C   0  0  0  0  0  0  0  0  0  0  0  0
    0.4042   -0.0667    0.0000 C   0  0  0  0  0  0  0  0  0  0  0  0
   -3.2500    0.3500    0.0000 C   0  0  0  0  0  0  0  0  0  0  0  0
   -3.9708   -0.9042    0.0000 C   0  0  0  0  0  0  0  0  0  0  0  0
   -1.0500   -0.0667    0.0000 N   0  0  0  0  0  0  0  0  0  0  0  0
   -3.9708   -0.0667    0.0000 C   0  0  0  0  0  0  0  0  0  0  0  0
   -1.7708    0.3500    0.0000 C   0  0  0  0  0  0  0  0  0  0  0  0
   -0.3125    0.3500    0.0000 N   0  0  0  0  0  0  0  0  0  0  0  0
    0.4042   -0.9042    0.0000 O   0  0  0  0  0  0  0  0  0  0  0  0
    1.8667   -0.0667    0.0000 N   0  0  0  0  0  0  0  0  0  0  0  0
    1.1500    0.3500    0.0000 C   0  0  0  0  0  0  0  0  0  0  0  0
   -1.7958   -1.3167    0.0000 Cl  0  0  0  0  0  0  0  0  0  0  0  0
    2.5875    0.3500    0.0000 C   0  0  0  0  0  0  0  0  0  0  0  0
    3.3042   -0.0667    0.0000 C   0  0  0  0  0  0  0  0  0  0  0  0
    4.0500    0.3500    0.0000 C   0  0  0  0  0  0  0  0  0  0  0  0
    3.3292    1.6125    0.0000 C   0  0  0  0  0  0  0  0  0  0  0  0
   -4.6958   -1.3292    0.0000 C   0  0  0  0  0  0  0  0  0  0  0  0
   -4.6958    0.3500    0.0000 C   0  0  0  0  0  0  0  0  0  0  0  0
    2.6042    1.1958    0.0000 C   0  0  0  0  0  0  0  0  0  0  0  0
    4.0500    1.1958    0.0000 C   0  0  0  0  0  0  0  0  0  0  0  0
    4.7667   -0.0542    0.0000 C   0  0  0  0  0  0  0  0  0  0  0  0
   -5.4125   -0.9042    0.0000 C   0  0  0  0  0  0  0  0  0  0  0  0
   -5.4125   -0.0667    0.0000 C   0  0  0  0  0  0  0  0  0  0  0  0
  2  3  2  0  0  0  0
  3  1  1  0  0  0  0
  4 10  1  0  0  0  0
  5  8  2  0  0  0  0
  6  1  2  0  0  0  0
  7  9  2  0  0  0  0
  8  6  1  0  0  0  0
  9  2  1  0  0  0  0
 10  7  1  0  0  0  0
 11  4  2  0  0  0  0
 12 13  1  0  0  0  0
 13  4  1  0  0  0  0
 14  3  1  0  0  0  0
 15 12  1  0  0  0  0
 16 15  2  0  0  0  0
 17 16  1  0  0  0  0
 18 21  2  0  0  0  0
 19  6  1  0  0  0  0
 20  8  1  0  0  0  0
 21 15  1  0  0  0  0
 22 18  1  0  0  0  0
 23 17  1  0  0  0  0
 24 19  2  0  0  0  0
 25 24  1  0  0  0  0
  5  2  1  0  0  0  0
 25 20  2  0  0  0  0
 17 22  2  0  0  0  0
M  END
> <#>
1645

> <PLATE>
LAT021

> <ROW>
E

> <COL>
7

> <COORD>
E07

> <LATID>
LAT021E07

> <Supplier>
Chembridge

> <Suplier_CAT#>
5201406

> <Name>
Novel

> <Concentration_(mM)>
2.5

> <IC50_(µM)>
11

> <Yeast_Active?>
-

> <Pubchem_CID>
1095088

$$$$
