
  -ISIS-  08130814242D

 22 23  0  0  0  0  0  0  0  0999 V2000
    3.5667    3.0458    0.0000 S   0  0  3  0  0  0  0  0  0  0  0  0
    3.9417    2.3958    0.0000 C   0  0  0  0  0  0  0  0  0  0  0  0
    3.5667    1.7500    0.0000 C   0  0  0  0  0  0  0  0  0  0  0  0
    4.6917    2.3958    0.0000 C   0  0  0  0  0  0  0  0  0  0  0  0
    2.8417    2.8583    0.0000 N   0  0  0  0  0  0  0  0  0  0  0  0
    3.9417    1.1000    0.0000 C   0  0  0  0  0  0  0  0  0  0  0  0
    5.0667    1.7500    0.0000 C   0  0  0  0  0  0  0  0  0  0  0  0
    4.6917    1.1000    0.0000 C   0  0  0  0  0  0  0  0  0  0  0  0
    4.2500    3.3625    0.0000 O   0  0  0  0  0  0  0  0  0  0  0  0
    3.3125    3.7500    0.0000 O   0  0  0  0  0  0  0  0  0  0  0  0
    1.0625    3.7208    0.0000 N   0  0  0  0  0  0  0  0  0  0  0  0
    2.3167    3.3833    0.0000 C   0  0  0  0  0  0  0  0  0  0  0  0
    1.5917    3.1875    0.0000 C   0  0  0  0  0  0  0  0  0  0  0  0
    3.5667    0.4500    0.0000 Cl  0  0  0  0  0  0  0  0  0  0  0  0
    5.0667    3.0458    0.0000 O   0  0  0  0  0  0  0  0  0  0  0  0
    5.0667    0.4500    0.0000 C   0  0  0  0  0  0  0  0  0  0  0  0
    0.3375    3.5250    0.0000 C   0  0  0  0  0  0  0  0  0  0  0  0
    5.8167    3.0458    0.0000 C   0  0  0  0  0  0  0  0  0  0  0  0
    1.3917    2.4708    0.0000 C   0  0  0  0  0  0  0  0  0  0  0  0
    6.1917    3.6958    0.0000 C   0  0  0  0  0  0  0  0  0  0  0  0
    0.1417    2.8000    0.0000 C   0  0  0  0  0  0  0  0  0  0  0  0
    0.6667    2.2708    0.0000 C   0  0  0  0  0  0  0  0  0  0  0  0
  2  1  1  0  0  0  0
  3  2  1  0  0  0  0
  4  2  2  0  0  0  0
  5  1  1  0  0  0  0
  6  3  2  0  0  0  0
  7  4  1  0  0  0  0
  8  7  2  0  0  0  0
  9  1  2  0  0  0  0
 10  1  2  0  0  0  0
 11 13  1  0  0  0  0
 12  5  1  0  0  0  0
 13 12  1  0  0  0  0
 14  6  1  0  0  0  0
 15  4  1  0  0  0  0
 16  8  1  0  0  0  0
 17 11  2  0  0  0  0
 18 15  1  0  0  0  0
 19 13  2  0  0  0  0
 20 18  1  0  0  0  0
 21 22  2  0  0  0  0
 22 19  1  0  0  0  0
  6  8  1  0  0  0  0
 17 21  1  0  0  0  0
M  END
> <#>
1954

> <PLATE>
LAT025

> <ROW>
B

> <COL>
6

> <COORD>
B06

> <LATID>
LAT025B06

> <Supplier>
Chembridge

> <Suplier_CAT#>
7940475

> <Name>
Pyrabactin G

> <Concentration_(mM)>
2.5

> <IC50_(µM)>
25

> <Yeast_Active?>
-

> <Pubchem_CID>
935531

$$$$
