
  -ISIS-  08130814242D

 23 24  0  0  0  0  0  0  0  0999 V2000
   -2.6500   -0.5667    0.0000 N   0  3  0  0  0  0  0  0  0  0  0  0
    2.4000    1.7125    0.0000 C   0  0  3  0  0  0  0  0  0  0  0  0
   -2.6500    0.2000    0.0000 C   0  0  0  0  0  0  0  0  0  0  0  0
   -1.9708    0.6000    0.0000 C   0  0  0  0  0  0  0  0  0  0  0  0
   -1.9708    1.3958    0.0000 C   0  0  0  0  0  0  0  0  0  0  0  0
    1.7500    2.1000    0.0000 C   0  0  0  0  0  0  0  0  0  0  0  0
   -1.2708    1.7958    0.0000 N   0  0  0  0  0  0  0  0  0  0  0  0
   -3.2958   -1.0167    0.0000 O   0  5  0  0  0  0  0  0  0  0  0  0
   -2.0125   -1.0000    0.0000 O   0  0  0  0  0  0  0  0  0  0  0  0
   -2.6500    1.7708    0.0000 C   0  0  0  0  0  0  0  0  0  0  0  0
    1.0667    1.7125    0.0000 C   0  0  0  0  0  0  0  0  0  0  0  0
   -3.3458    0.6000    0.0000 C   0  0  0  0  0  0  0  0  0  0  0  0
    2.0042    1.0458    0.0000 F   0  0  0  0  0  0  0  0  0  0  0  0
    3.0542    1.3458    0.0000 F   0  0  0  0  0  0  0  0  0  0  0  0
    2.8000    2.3958    0.0000 F   0  0  0  0  0  0  0  0  0  0  0  0
   -3.3458    1.3958    0.0000 C   0  0  0  0  0  0  0  0  0  0  0  0
   -0.3000    1.7458    0.0000 C   0  0  0  0  0  0  0  0  0  0  0  0
    0.3667    2.1000    0.0000 C   0  0  0  0  0  0  0  0  0  0  0  0
   -2.6500    2.5500    0.0000 O   0  0  0  0  0  0  0  0  0  0  0  0
    1.7500    2.8833    0.0000 C   0  0  0  0  0  0  0  0  0  0  0  0
    1.0667    3.2708    0.0000 C   0  0  0  0  0  0  0  0  0  0  0  0
    0.3667    2.8625    0.0000 C   0  0  0  0  0  0  0  0  0  0  0  0
   -1.9958    2.9333    0.0000 C   0  0  0  0  0  0  0  0  0  0  0  0
  2  6  1  0  0  0  0
  3  1  1  0  0  0  0
  4  3  2  0  0  0  0
  5  4  1  0  0  0  0
  6 11  2  0  0  0  0
  7  5  1  0  0  0  0
  8  1  1  0  0  0  0
  9  1  2  0  0  0  0
 10 16  1  0  0  0  0
 11 18  1  0  0  0  0
 12  3  1  0  0  0  0
 13  2  1  0  0  0  0
 14  2  1  0  0  0  0
 15  2  1  0  0  0  0
 16 12  2  0  0  0  0
 17  7  1  0  0  0  0
 18 17  1  0  0  0  0
 19 10  1  0  0  0  0
 20 21  2  0  0  0  0
 21 22  1  0  0  0  0
 22 18  2  0  0  0  0
 23 19  1  0  0  0  0
 10  5  2  0  0  0  0
 20  6  1  0  0  0  0
M  CHG  2   1   1   8  -1
M  END
> <#>
1773

> <PLATE>
LAT023

> <ROW>
E

> <COL>
3

> <COORD>
E03

> <LATID>
LAT023E03

> <Supplier>
Chembridge

> <Suplier_CAT#>
5535635

> <Name>
Novel

> <Sec_Name>
155_C03

> <Concentration_(mM)>
2.5

> <IC50_(µM)>
25

> <Yeast_Active?>
-

> <Pubchem_CID>
792108

$$$$
