
  -ISIS-  08130814242D

 21 22  0  0  0  0  0  0  0  0999 V2000
    3.9292   -0.3667    0.0000 C   0  0  0  0  0  0  0  0  0  0  0  0
    5.2292   -0.3667    0.0000 N   0  0  0  0  0  0  0  0  0  0  0  0
    4.5792   -0.7500    0.0000 N   0  0  0  0  0  0  0  0  0  0  0  0
    3.9292    0.3708    0.0000 O   0  0  0  0  0  0  0  0  0  0  0  0
    1.3292   -0.3667    0.0000 C   0  0  0  0  0  0  0  0  0  0  0  0
    3.2792   -0.7500    0.0000 C   0  0  0  0  0  0  0  0  0  0  0  0
    5.8792   -0.7500    0.0000 C   0  0  0  0  0  0  0  0  0  0  0  0
    2.6292   -0.3667    0.0000 O   0  0  0  0  0  0  0  0  0  0  0  0
    1.9792   -0.7500    0.0000 C   0  0  0  0  0  0  0  0  0  0  0  0
    0.6792   -0.7500    0.0000 C   0  0  0  0  0  0  0  0  0  0  0  0
    5.8792   -1.5000    0.0000 C   0  0  0  0  0  0  0  0  0  0  0  0
    5.8792   -3.0000    0.0000 C   0  0  0  0  0  0  0  0  0  0  0  0
    0.0292   -0.3667    0.0000 Cl  0  0  0  0  0  0  0  0  0  0  0  0
    5.8792   -3.7500    0.0000 F   0  0  0  0  0  0  0  0  0  0  0  0
    6.5292   -2.6167    0.0000 C   0  0  0  0  0  0  0  0  0  0  0  0
    5.2292   -2.6167    0.0000 C   0  0  0  0  0  0  0  0  0  0  0  0
    6.5292   -1.8667    0.0000 C   0  0  0  0  0  0  0  0  0  0  0  0
    5.2292   -1.8667    0.0000 C   0  0  0  0  0  0  0  0  0  0  0  0
    1.3292   -1.8667    0.0000 C   0  0  0  0  0  0  0  0  0  0  0  0
    1.9792   -1.5000    0.0000 C   0  0  0  0  0  0  0  0  0  0  0  0
    0.6792   -1.5000    0.0000 C   0  0  0  0  0  0  0  0  0  0  0  0
  2  3  1  0  0  0  0
  3  1  1  0  0  0  0
  4  1  2  0  0  0  0
  5  9  1  0  0  0  0
  6  1  1  0  0  0  0
  7  2  2  0  0  0  0
  8  6  1  0  0  0  0
  9  8  1  0  0  0  0
 10  5  2  0  0  0  0
 11  7  1  0  0  0  0
 12 16  1  0  0  0  0
 13 10  1  0  0  0  0
 14 12  1  0  0  0  0
 15 17  1  0  0  0  0
 16 18  2  0  0  0  0
 17 11  2  0  0  0  0
 18 11  1  0  0  0  0
 19 20  1  0  0  0  0
 20  9  2  0  0  0  0
 21 19  2  0  0  0  0
 21 10  1  0  0  0  0
 15 12  2  0  0  0  0
M  END
> <#>
671

> <PLATE>
LAT009

> <ROW>
G

> <COL>
5

> <COORD>
G05

> <LATID>
LAT009G05

> <Supplier>
Chembridge

> <Suplier_CAT#>
5532024

> <Name>
Novel

> <Sec_Name>
153_E08

> <Concentration_(mM)>
2.5

> <IC50_(µM)>
100

> <Yeast_Active?>
-

> <Pubchem_CID>
871105

$$$$
