
  -ISIS-  08130814242D

 18 19  0  0  0  0  0  0  0  0999 V2000
    1.1625    0.7583    0.0000 N   0  0  3  0  0  0  0  0  0  0  0  0
    1.1625    0.0083    0.0000 C   0  0  0  0  0  0  0  0  0  0  0  0
    2.4542    0.7583    0.0000 C   0  0  0  0  0  0  0  0  0  0  0  0
    2.4542    0.0083    0.0000 C   0  0  0  0  0  0  0  0  0  0  0  0
    1.8042   -0.3667    0.0000 S   0  0  0  0  0  0  0  0  0  0  0  0
    3.1042   -0.3667    0.0000 C   0  0  0  0  0  0  0  0  0  0  0  0
    3.1042   -1.1167    0.0000 C   0  0  0  0  0  0  0  0  0  0  0  0
    2.7292   -2.2750    0.0000 C   0  0  0  0  0  0  0  0  0  0  0  0
    2.5042   -1.5542    0.0000 O   0  0  0  0  0  0  0  0  0  0  0  0
    0.6292    1.2875    0.0000 C   0  0  0  0  0  0  0  0  0  0  0  0
    0.5125   -0.3667    0.0000 S   0  0  0  0  0  0  0  0  0  0  0  0
    3.4792   -2.2750    0.0000 C   0  0  0  0  0  0  0  0  0  0  0  0
    3.7125   -1.5625    0.0000 C   0  0  0  0  0  0  0  0  0  0  0  0
   -0.0958    1.0958    0.0000 C   0  0  0  0  0  0  0  0  0  0  0  0
    2.9917    1.2875    0.0000 O   0  0  0  0  0  0  0  0  0  0  0  0
   -0.2875    0.3708    0.0000 O   0  0  0  0  0  0  0  0  0  0  0  0
    2.2792   -2.8792    0.0000 I   0  0  0  0  0  0  0  0  0  0  0  0
   -0.6250    1.6208    0.0000 O   0  0  0  0  0  0  0  0  0  0  0  0
  2  1  1  0  0  0  0
  3  1  1  0  0  0  0
  4  3  1  0  0  0  0
  5  2  1  0  0  0  0
  6  4  2  0  0  0  0
  7  6  1  0  0  0  0
  8  9  1  0  0  0  0
  9  7  1  0  0  0  0
 10  1  1  0  0  0  0
 11  2  2  0  0  0  0
 12 13  1  0  0  0  0
 13  7  2  0  0  0  0
 14 10  1  0  0  0  0
 15  3  2  0  0  0  0
 16 14  2  0  0  0  0
 17  8  1  0  0  0  0
 18 14  1  0  0  0  0
  4  5  1  0  0  0  0
 12  8  2  0  0  0  0
M  END
> <#>
954

> <PLATE>
LAT012

> <ROW>
B

> <COL>
11

> <COORD>
B11

> <LATID>
LAT012B11

> <Supplier>
Chembridge

> <Suplier_CAT#>
5734645

> <Name>
Novel

> <Sec_Name>
234_G04

> <Concentration_(mM)>
2.5

> <IC50_(µM)>
>100

> <Yeast_Active?>
-

> <Pubchem_CID>
1271887

$$$$
