
  -ISIS-  08130814242D

 23 24  0  0  0  0  0  0  0  0999 V2000
    0.0000    0.0000    0.0000 C   0  0  0  0  0  0  0  0  0  0  0  0
    0.7667    0.0000    0.0000 N   0  0  0  0  0  0  0  0  0  0  0  0
   -2.2500   -2.7375    0.0000 C   0  0  0  0  0  0  0  0  0  0  0  0
   -0.6000   -0.5042    0.0000 C   0  0  0  0  0  0  0  0  0  0  0  0
   -2.3708   -1.9875    0.0000 N   0  0  0  0  0  0  0  0  0  0  0  0
    2.4417    0.8958    0.0000 N   0  0  0  0  0  0  0  0  0  0  0  0
   -0.1458    0.7625    0.0000 O   0  0  0  0  0  0  0  0  0  0  0  0
   -1.5208   -3.0042    0.0000 O   0  0  0  0  0  0  0  0  0  0  0  0
   -1.3208   -0.2542    0.0000 C   0  0  0  0  0  0  0  0  0  0  0  0
   -0.4625   -1.2542    0.0000 C   0  0  0  0  0  0  0  0  0  0  0  0
   -1.7500   -1.5000    0.0000 C   0  0  0  0  0  0  0  0  0  0  0  0
    1.1792    0.5333    0.0000 C   0  0  0  0  0  0  0  0  0  0  0  0
    1.8667    0.3458    0.0000 C   0  0  0  0  0  0  0  0  0  0  0  0
   -1.8625   -0.7292    0.0000 C   0  0  0  0  0  0  0  0  0  0  0  0
   -1.0625   -1.7792    0.0000 C   0  0  0  0  0  0  0  0  0  0  0  0
   -2.8333   -3.2167    0.0000 C   0  0  0  0  0  0  0  0  0  0  0  0
    3.2167    0.6500    0.0000 C   0  0  0  0  0  0  0  0  0  0  0  0
    2.0500   -0.4167    0.0000 C   0  0  0  0  0  0  0  0  0  0  0  0
   -2.6958   -4.0000    0.0000 C   0  0  0  0  0  0  0  0  0  0  0  0
   -3.2958   -4.4792    0.0000 C   0  0  0  0  0  0  0  0  0  0  0  0
    3.3875   -0.1042    0.0000 C   0  0  0  0  0  0  0  0  0  0  0  0
   -3.1458   -5.2542    0.0000 C   0  0  0  0  0  0  0  0  0  0  0  0
    2.8000   -0.6542    0.0000 C   0  0  0  0  0  0  0  0  0  0  0  0
  2  1  1  0  0  0  0
  3  5  1  0  0  0  0
  4  1  1  0  0  0  0
  5 11  1  0  0  0  0
  6 13  1  0  0  0  0
  7  1  2  0  0  0  0
  8  3  2  0  0  0  0
  9  4  2  0  0  0  0
 10  4  1  0  0  0  0
 11 15  1  0  0  0  0
 12  2  1  0  0  0  0
 13 12  1  0  0  0  0
 14  9  1  0  0  0  0
 15 10  2  0  0  0  0
 16  3  1  0  0  0  0
 17  6  2  0  0  0  0
 18 13  2  0  0  0  0
 19 16  1  0  0  0  0
 20 19  1  0  0  0  0
 21 23  2  0  0  0  0
 22 20  1  0  0  0  0
 23 18  1  0  0  0  0
 14 11  2  0  0  0  0
 21 17  1  0  0  0  0
M  END
> <#>
1440

> <PLATE>
LAT018

> <ROW>
H

> <COL>
11

> <COORD>
H11

> <LATID>
LAT018H11

> <Supplier>
Chembridge

> <Suplier_CAT#>
7824160

> <Name>
Novel

> <Concentration_(mM)>
2.5

> <IC50_(µM)>
>100

> <Yeast_Active?>
-

> <Pubchem_CID>
2210674

$$$$
