
  -ISIS-  08130814242D

 31 33  0  0  0  0  0  0  0  0999 V2000
   -1.7708    0.4833    0.0000 C   0  0  0  0  0  0  0  0  0  0  0  0
   -2.6958    0.4833    0.0000 C   0  0  3  0  0  0  0  0  0  0  0  0
    2.8500   -1.1167    0.0000 C   0  0  0  0  0  0  0  0  0  0  0  0
    2.3792   -1.9167    0.0000 C   0  0  0  0  0  0  0  0  0  0  0  0
    2.3792   -0.3167    0.0000 C   0  0  0  0  0  0  0  0  0  0  0  0
   -0.3958   -0.3375    0.0000 N   0  0  0  0  0  0  0  0  0  0  0  0
   -1.3125   -0.3167    0.0000 N   0  0  0  0  0  0  0  0  0  0  0  0
    1.4667   -1.9167    0.0000 C   0  0  0  0  0  0  0  0  0  0  0  0
    1.4667   -0.3167    0.0000 C   0  0  0  0  0  0  0  0  0  0  0  0
   -1.3125    1.2833    0.0000 O   0  0  0  0  0  0  0  0  0  0  0  0
    1.0042   -1.1167    0.0000 C   0  0  0  0  0  0  0  0  0  0  0  0
   -2.6958   -0.4375    0.0000 C   0  0  0  0  0  0  0  0  0  0  0  0
   -2.6958    1.4000    0.0000 C   0  0  0  0  0  0  0  0  0  0  0  0
    0.0875   -1.1167    0.0000 C   0  0  0  0  0  0  0  0  0  0  0  0
   -3.6125    0.4833    0.0000 O   0  0  0  0  0  0  0  0  0  0  0  0
    3.7667   -1.1375    0.0000 O   0  0  0  0  0  0  0  0  0  0  0  0
    2.8500    0.5208    0.0000 O   0  0  0  0  0  0  0  0  0  0  0  0
    2.8500   -2.7167    0.0000 O   0  0  0  0  0  0  0  0  0  0  0  0
   -3.4708   -0.9000    0.0000 C   0  0  0  0  0  0  0  0  0  0  0  0
   -1.8958   -0.9000    0.0000 C   0  0  0  0  0  0  0  0  0  0  0  0
   -3.4958    1.8625    0.0000 C   0  0  0  0  0  0  0  0  0  0  0  0
   -1.8958    1.8625    0.0000 C   0  0  0  0  0  0  0  0  0  0  0  0
    4.2042   -1.9375    0.0000 C   0  0  0  0  0  0  0  0  0  0  0  0
    2.3667    1.3000    0.0000 C   0  0  0  0  0  0  0  0  0  0  0  0
    3.7875   -2.7167    0.0000 C   0  0  0  0  0  0  0  0  0  0  0  0
   -3.4708   -1.8167    0.0000 C   0  0  0  0  0  0  0  0  0  0  0  0
   -1.8708   -1.8167    0.0000 C   0  0  0  0  0  0  0  0  0  0  0  0
   -3.4958    2.7833    0.0000 C   0  0  0  0  0  0  0  0  0  0  0  0
   -1.8958    2.7833    0.0000 C   0  0  0  0  0  0  0  0  0  0  0  0
   -2.6958   -2.2792    0.0000 C   0  0  0  0  0  0  0  0  0  0  0  0
   -2.6958    3.2458    0.0000 C   0  0  0  0  0  0  0  0  0  0  0  0
  2  1  1  0  0  0  0
  3  5  2  0  0  0  0
  4  8  2  0  0  0  0
  5  9  1  0  0  0  0
  6  7  1  0  0  0  0
  7  1  1  0  0  0  0
  8 11  1  0  0  0  0
  9 11  2  0  0  0  0
 10  1  2  0  0  0  0
 11 14  1  0  0  0  0
 12  2  1  0  0  0  0
 13  2  1  0  0  0  0
 14  6  2  0  0  0  0
 15  2  1  0  0  0  0
 16  3  1  0  0  0  0
 17  5  1  0  0  0  0
 18  4  1  0  0  0  0
 19 12  1  0  0  0  0
 20 12  2  0  0  0  0
 21 13  2  0  0  0  0
 22 13  1  0  0  0  0
 23 16  1  0  0  0  0
 24 17  1  0  0  0  0
 25 18  1  0  0  0  0
 26 19  2  0  0  0  0
 27 20  1  0  0  0  0
 28 21  1  0  0  0  0
 29 22  2  0  0  0  0
 30 27  2  0  0  0  0
 31 29  1  0  0  0  0
 31 28  2  0  0  0  0
 30 26  1  0  0  0  0
  3  4  1  0  0  0  0
M  END
> <#>
1069

> <PLATE>
LAT014

> <ROW>
E

> <COL>
5

> <COORD>
E05

> <LATID>
LAT014E05

> <Supplier>
Chembridge

> <Suplier_CAT#>
5521787

> <Name>
Novel

> <Concentration_(mM)>
2.5

> <IC50_(µM)>
39

> <Yeast_Active?>
-

> <Pubchem_CID>
1039803

$$$$
