
  -ISIS-  08130814242D

 42 43  0  0  0  0  0  0  0  0999 V2000
   -4.0458   -0.2500    0.0000 C   0  0  0  0  0  0  0  0  0  0  0  0
   -2.9625   -0.2500    0.0000 C   0  0  0  0  0  0  0  0  0  0  0  0
   -2.4208    0.0625    0.0000 C   0  0  0  0  0  0  0  0  0  0  0  0
   -3.5000    0.0625    0.0000 N   0  0  0  0  0  0  0  0  0  0  0  0
   -4.5833    0.0625    0.0000 C   0  0  0  0  0  0  0  0  0  0  0  0
   -1.8833   -0.2542    0.0000 C   0  0  0  0  0  0  0  0  0  0  0  0
   -4.5833   -1.8000    0.0000 C   0  0  0  0  0  0  0  0  0  0  0  0
   -4.5833   -1.1875    0.0000 C   0  0  0  0  0  0  0  0  0  0  0  0
   -4.0458   -0.8792    0.0000 C   0  0  0  0  0  0  0  0  0  0  0  0
   -5.1208   -0.2500    0.0000 C   0  0  0  0  0  0  0  0  0  0  0  0
   -1.9083   -0.8792    0.0000 C   0  0  0  0  0  0  0  0  0  0  0  0
   -4.5833    0.6958    0.0000 N   0  0  3  0  0  0  0  0  0  0  0  0
   -5.1208   -0.8792    0.0000 C   0  0  0  0  0  0  0  0  0  0  0  0
   -2.9625   -0.8792    0.0000 O   0  0  0  0  0  0  0  0  0  0  0  0
   -4.0625   -2.1167    0.0000 O   0  0  0  0  0  0  0  0  0  0  0  0
   -1.3458    0.0458    0.0000 O   0  0  0  0  0  0  0  0  0  0  0  0
   -1.3708   -1.2000    0.0000 C   0  0  0  0  0  0  0  0  0  0  0  0
   -2.4500   -1.1792    0.0000 C   0  0  0  0  0  0  0  0  0  0  0  0
   -5.1000   -2.1167    0.0000 O   0  0  0  0  0  0  0  0  0  0  0  0
   -1.9208   -2.1292    0.0000 C   0  0  0  0  0  0  0  0  0  0  0  0
   -2.4708   -1.8000    0.0000 C   0  0  0  0  0  0  0  0  0  0  0  0
   -1.3833   -1.8167    0.0000 C   0  0  0  0  0  0  0  0  0  0  0  0
   -1.9208   -2.7375    0.0000 O   0  0  0  0  0  0  0  0  0  0  0  0
   -4.0458    1.0000    0.0000 C   0  0  0  0  0  0  0  0  0  0  0  0
   -5.1208    1.0125    0.0000 C   0  0  0  0  0  0  0  0  0  0  0  0
   -3.5000    0.6958    0.0000 C   0  0  0  0  0  0  0  0  0  0  0  0
    0.2500   -2.5875    0.0000 C   0  0  0  0  0  0  0  0  0  0  0  0
    0.2292   -1.9667    0.0000 C   0  0  0  0  0  0  0  0  0  0  0  0
    0.8000    0.7500    0.0000 C   0  0  0  0  0  0  0  0  0  0  0  0
    0.2500    1.0500    0.0000 C   0  0  0  0  0  0  0  0  0  0  0  0
   -2.9625    1.0000    0.0000 C   0  0  0  0  0  0  0  0  0  0  0  0
    0.2500   -0.1500    0.0000 C   0  0  0  0  0  0  0  0  0  0  0  0
   -0.2708    0.7333    0.0000 C   0  0  0  0  0  0  0  0  0  0  0  0
    0.8000    0.1500    0.0000 C   0  0  0  0  0  0  0  0  0  0  0  0
   -0.8208    1.0333    0.0000 C   0  0  0  0  0  0  0  0  0  0  0  0
   -1.3458    0.7125    0.0000 C   0  0  0  0  0  0  0  0  0  0  0  0
   -0.3208   -1.6667    0.0000 C   0  0  0  0  0  0  0  0  0  0  0  0
   -0.3208   -1.0667    0.0000 C   0  0  0  0  0  0  0  0  0  0  0  0
    0.2292   -0.7667    0.0000 C   0  0  0  0  0  0  0  0  0  0  0  0
   -1.8833    1.0125    0.0000 C   0  0  0  0  0  0  0  0  0  0  0  0
   -2.4208    0.6958    0.0000 C   0  0  0  0  0  0  0  0  0  0  0  0
    0.8000   -2.8875    0.0000 C   0  0  0  0  0  0  0  0  0  0  0  0
  2  4  1  0  0  0  0
  3  2  1  0  0  0  0
  4  1  1  0  0  0  0
  5  1  2  0  0  0  0
  6  3  1  0  0  0  0
  7  8  1  0  0  0  0
  8  9  2  0  0  0  0
  9  1  1  0  0  0  0
 10  5  1  0  0  0  0
 11  6  1  0  0  0  0
 12  5  1  0  0  0  0
 13  8  1  0  0  0  0
 14  2  2  0  0  0  0
 15  7  2  0  0  0  0
 16  6  2  0  0  0  0
 17 11  1  0  0  0  0
 18 11  2  0  0  0  0
 19  7  1  0  0  0  0
 20 21  2  0  0  0  0
 21 18  1  0  0  0  0
 22 17  2  0  0  0  0
 23 20  1  0  0  0  0
 24 12  1  0  0  0  0
 25 12  1  0  0  0  0
 26 24  1  0  0  0  0
 27 28  1  0  0  0  0
 28 37  1  0  0  0  0
 29 30  1  0  0  0  0
 30 33  1  0  0  0  0
 31 26  1  0  0  0  0
 32 34  1  0  0  0  0
 33 35  1  0  0  0  0
 34 29  1  0  0  0  0
 35 36  1  0  0  0  0
 36 40  1  0  0  0  0
 37 38  1  0  0  0  0
 38 39  1  0  0  0  0
 39 32  1  0  0  0  0
 40 41  1  0  0  0  0
 41 31  1  0  0  0  0
 42 27  1  0  0  0  0
 10 13  2  0  0  0  0
 22 20  1  0  0  0  0
M  END
> <#>
1173

> <PLATE>
LAT015

> <ROW>
E

> <COL>
8

> <COORD>
E08

> <LATID>
LAT015E08

> <Supplier>
Chembridge

> <Suplier_CAT#>
5128945

> <Name>
Novel

> <Concentration_(mM)>
2.5

> <IC50_(µM)>
inactive

> <Yeast_Active?>
-

> <Pubchem_CID>
2829011

$$$$
