
  -ISIS-  08130814242D

 26 29  0  0  0  0  0  0  0  0999 V2000
   -2.0458    1.0958    0.0000 C   0  0  0  0  0  0  0  0  0  0  0  0
   -2.4625    1.3208    0.0000 C   0  0  0  0  0  0  0  0  0  0  0  0
   -2.0458    0.6208    0.0000 C   0  0  0  0  0  0  0  0  0  0  0  0
   -2.4625    0.3833    0.0000 C   0  0  0  0  0  0  0  0  0  0  0  0
   -2.8708    1.0958    0.0000 C   0  0  0  0  0  0  0  0  0  0  0  0
   -2.8708    0.6208    0.0000 C   0  0  0  0  0  0  0  0  0  0  0  0
   -1.6333    1.3208    0.0000 C   0  0  0  0  0  0  0  0  0  0  0  0
   -0.8625    1.8208    0.0000 C   0  0  0  0  0  0  0  0  0  0  0  0
   -0.8833    1.3500    0.0000 N   0  0  0  0  0  0  0  0  0  0  0  0
   -1.2208    1.0958    0.0000 C   0  0  0  0  0  0  0  0  0  0  0  0
   -1.6333    0.3833    0.0000 C   0  0  0  0  0  0  0  0  0  0  0  0
   -2.4458    1.7708    0.0000 O   0  0  0  0  0  0  0  0  0  0  0  0
   -2.4333    0.0500    0.0000 O   0  0  0  0  0  0  0  0  0  0  0  0
   -1.2208    0.6208    0.0000 C   0  0  0  0  0  0  0  0  0  0  0  0
   -1.2208    2.1958    0.0000 O   0  0  0  0  0  0  0  0  0  0  0  0
   -0.4208    1.9333    0.0000 C   0  0  0  0  0  0  0  0  0  0  0  0
   -1.6000    1.6208    0.0000 O   0  0  0  0  0  0  0  0  0  0  0  0
   -3.2958    1.3208    0.0000 C   0  0  0  0  0  0  0  0  0  0  0  0
   -3.2958    0.3833    0.0000 C   0  0  0  0  0  0  0  0  0  0  0  0
   -0.1000    1.6000    0.0000 C   0  0  0  0  0  0  0  0  0  0  0  0
   -0.3000    2.3708    0.0000 C   0  0  0  0  0  0  0  0  0  0  0  0
   -3.7000    1.0958    0.0000 C   0  0  0  0  0  0  0  0  0  0  0  0
   -3.7000    0.6208    0.0000 C   0  0  0  0  0  0  0  0  0  0  0  0
    0.1375    2.4958    0.0000 C   0  0  0  0  0  0  0  0  0  0  0  0
    0.3500    1.7208    0.0000 C   0  0  0  0  0  0  0  0  0  0  0  0
    0.4792    2.1625    0.0000 C   0  0  0  0  0  0  0  0  0  0  0  0
  2  1  1  0  0  0  0
  3  1  2  0  0  0  0
  4  3  1  0  0  0  0
  5  2  1  0  0  0  0
  6  4  1  0  0  0  0
  7  1  1  0  0  0  0
  8  9  1  0  0  0  0
  9 10  1  0  0  0  0
 10  7  2  0  0  0  0
 11  3  1  0  0  0  0
 12  2  2  0  0  0  0
 13  4  2  0  0  0  0
 14 10  1  0  0  0  0
 15  8  2  0  0  0  0
 16  8  1  0  0  0  0
 17  7  1  0  0  0  0
 18  5  1  0  0  0  0
 19  6  1  0  0  0  0
 20 16  1  0  0  0  0
 21 16  2  0  0  0  0
 22 18  2  0  0  0  0
 23 19  2  0  0  0  0
 24 21  1  0  0  0  0
 25 20  2  0  0  0  0
 26 24  2  0  0  0  0
 11 14  2  0  0  0  0
  6  5  2  0  0  0  0
 22 23  1  0  0  0  0
 26 25  1  0  0  0  0
M  END
> <#>
1194

> <PLATE>
LAT015

> <ROW>
B

> <COL>
11

> <COORD>
B11

> <LATID>
LAT015B11

> <Supplier>
Chembridge

> <Suplier_CAT#>
5630977

> <Name>
Novel

> <Concentration_(mM)>
2.5

> <IC50_(µM)>
inactive

> <Yeast_Active?>
-

> <Pubchem_CID>
NULL

$$$$
