
  -ISIS-  08130814242D

 23 26  0  0  0  0  0  0  0  0999 V2000
    1.7000    1.5208    0.0000 C   0  0  0  0  0  0  0  0  0  0  0  0
    0.8000    0.8833    0.0000 N   0  0  0  0  0  0  0  0  0  0  0  0
    1.3542    2.5833    0.0000 C   0  0  0  0  0  0  0  0  0  0  0  0
    0.2542    2.5833    0.0000 C   0  0  0  0  0  0  0  0  0  0  0  0
   -0.1000    1.5458    0.0000 C   0  0  0  0  0  0  0  0  0  0  0  0
    2.7792    1.2833    0.0000 C   0  0  3  0  0  0  0  0  0  0  0  0
    3.1167    0.2208    0.0000 N   0  0  0  0  0  0  0  0  0  0  0  0
   -0.4833    3.4000    0.0000 C   0  0  0  0  0  0  0  0  0  0  0  0
    4.2000   -0.0167    0.0000 C   0  0  3  0  0  0  0  0  0  0  0  0
   -1.1833    1.3208    0.0000 C   0  0  0  0  0  0  0  0  0  0  0  0
    4.5167   -1.0542    0.0000 C   0  0  0  0  0  0  0  0  0  0  0  0
    2.1000    3.4000    0.0000 C   0  0  0  0  0  0  0  0  0  0  0  0
   -1.5625    3.1708    0.0000 C   0  0  0  0  0  0  0  0  0  0  0  0
   -1.9083    2.1625    0.0000 C   0  0  0  0  0  0  0  0  0  0  0  0
    3.5167    2.1000    0.0000 C   0  0  0  0  0  0  0  0  0  0  0  0
    3.1792    3.1708    0.0000 C   0  0  0  0  0  0  0  0  0  0  0  0
    4.9375    0.8000    0.0000 C   0  0  0  0  0  0  0  0  0  0  0  0
    5.6000   -1.3000    0.0000 C   0  0  0  0  0  0  0  0  0  0  0  0
    3.7792   -1.8792    0.0000 C   0  0  0  0  0  0  0  0  0  0  0  0
   -2.3208    3.9625    0.0000 C   0  0  0  0  0  0  0  0  0  0  0  0
    4.1000   -2.9167    0.0000 C   0  0  0  0  0  0  0  0  0  0  0  0
    5.9375   -2.3542    0.0000 C   0  0  0  0  0  0  0  0  0  0  0  0
    5.1792   -3.1542    0.0000 C   0  0  0  0  0  0  0  0  0  0  0  0
  2  1  1  0  0  0  0
  3  1  2  0  0  0  0
  4  3  1  0  0  0  0
  5  2  1  0  0  0  0
  6  1  1  0  0  0  0
  7  6  1  0  0  0  0
  8  4  1  0  0  0  0
  9  7  1  0  0  0  0
 10  5  1  0  0  0  0
 11  9  1  0  0  0  0
 12  3  1  0  0  0  0
 13  8  2  0  0  0  0
 14 10  2  0  0  0  0
 15  6  1  0  0  0  0
 16 15  1  0  0  0  0
 17  9  1  0  0  0  0
 18 11  2  0  0  0  0
 19 11  1  0  0  0  0
 20 13  1  0  0  0  0
 21 19  2  0  0  0  0
 22 18  1  0  0  0  0
 23 21  1  0  0  0  0
  5  4  2  0  0  0  0
 16 12  1  0  0  0  0
 14 13  1  0  0  0  0
 23 22  2  0  0  0  0
M  END
> <#>
1761

> <PLATE>
LAT023

> <ROW>
A

> <COL>
2

> <COORD>
A02

> <LATID>
LAT023A02

> <Supplier>
Chembridge

> <Suplier_CAT#>
5480648

> <Name>
Novel

> <Sec_Name>
142_E07

> <Concentration_(mM)>
2.5

> <IC50_(µM)>
4

> <Yeast_Active?>
-

> <Pubchem_CID>
NULL

$$$$
