
  -ISIS-  08130814242D

 21 22  0  0  0  0  0  0  0  0999 V2000
   -0.9833   -0.1375    0.0000 C   0  0  3  0  0  0  0  0  0  0  0  0
   -1.9083   -0.1375    0.0000 C   0  0  0  0  0  0  0  0  0  0  0  0
   -2.3708   -0.9375    0.0000 C   0  0  0  0  0  0  0  0  0  0  0  0
   -3.3000   -0.9292    0.0000 C   0  0  0  0  0  0  0  0  0  0  0  0
   -0.0500   -0.1375    0.0000 C   0  0  0  0  0  0  0  0  0  0  0  0
   -0.9833    0.7833    0.0000 C   0  0  0  0  0  0  0  0  0  0  0  0
   -3.7500   -0.1167    0.0000 C   0  0  0  0  0  0  0  0  0  0  0  0
   -1.9208   -1.7500    0.0000 O   0  0  0  0  0  0  0  0  0  0  0  0
   -0.9833   -1.0792    0.0000 O   0  0  0  0  0  0  0  0  0  0  0  0
   -3.2625    0.6625    0.0000 C   0  0  0  0  0  0  0  0  0  0  0  0
   -4.6958   -0.1042    0.0000 C   0  0  0  0  0  0  0  0  0  0  0  0
    0.4167   -0.9500    0.0000 C   0  0  0  0  0  0  0  0  0  0  0  0
   -0.1958    1.2458    0.0000 C   0  0  0  0  0  0  0  0  0  0  0  0
   -1.7833    1.2333    0.0000 C   0  0  0  0  0  0  0  0  0  0  0  0
    0.4167    0.6708    0.0000 C   0  0  0  0  0  0  0  0  0  0  0  0
   -0.2000    2.1708    0.0000 C   0  0  0  0  0  0  0  0  0  0  0  0
   -1.7958    2.1625    0.0000 C   0  0  0  0  0  0  0  0  0  0  0  0
    1.3542   -0.9500    0.0000 C   0  0  0  0  0  0  0  0  0  0  0  0
    1.3542    0.6708    0.0000 C   0  0  0  0  0  0  0  0  0  0  0  0
   -0.9958    2.6458    0.0000 C   0  0  0  0  0  0  0  0  0  0  0  0
    1.8292   -0.1375    0.0000 C   0  0  0  0  0  0  0  0  0  0  0  0
  2  1  1  0  0  0  0
  3  2  1  0  0  0  0
  4  3  1  0  0  0  0
  5  1  1  0  0  0  0
  6  1  1  0  0  0  0
  7  4  2  0  0  0  0
  8  3  2  0  0  0  0
  9  1  1  0  0  0  0
 10  7  1  0  0  0  0
 11  7  1  0  0  0  0
 12  5  1  0  0  0  0
 13  6  1  0  0  0  0
 14  6  2  0  0  0  0
 15  5  2  0  0  0  0
 16 13  2  0  0  0  0
 17 14  1  0  0  0  0
 18 12  2  0  0  0  0
 19 15  1  0  0  0  0
 20 17  2  0  0  0  0
 21 19  2  0  0  0  0
 20 16  1  0  0  0  0
 21 18  1  0  0  0  0
M  END
> <#>
1003

> <PLATE>
LAT013

> <ROW>
C

> <COL>
7

> <COORD>
C07

> <LATID>
LAT013C07

> <Supplier>
Chembridge

> <Suplier_CAT#>
5559313

> <Name>
Novel

> <Sec_Name>
170_E06

> <Concentration_(mM)>
2.5

> <IC50_(µM)>
inactive

> <Yeast_Active?>
-

> <Pubchem_CID>
744417

$$$$
