
  -ISIS-  08130814242D

 25 25  0  0  0  0  0  0  0  0999 V2000
   -1.8500    1.1833    0.0000 C   0  0  0  0  0  0  0  0  0  0  0  0
   -1.3500    0.9000    0.0000 C   0  0  0  0  0  0  0  0  0  0  0  0
   -1.3500    0.3208    0.0000 C   0  0  0  0  0  0  0  0  0  0  0  0
   -1.8500    1.7625    0.0000 C   0  0  0  0  0  0  0  0  0  0  0  0
   -0.8500    0.0208    0.0000 C   0  0  0  0  0  0  0  0  0  0  0  0
   -1.8500    0.0208    0.0000 C   0  0  0  0  0  0  0  0  0  0  0  0
   -2.3500    0.9000    0.0000 C   0  0  0  0  0  0  0  0  0  0  0  0
   -1.3500    2.0625    0.0000 N   0  3  3  0  0  0  0  0  0  0  0  0
   -2.3500    0.3208    0.0000 C   0  0  0  0  0  0  0  0  0  0  0  0
   -0.3500    0.3208    0.0000 C   0  0  0  0  0  0  0  0  0  0  0  0
   -0.8500   -0.5542    0.0000 O   0  0  0  0  0  0  0  0  0  0  0  0
   -0.3500    0.9000    0.0000 O   0  0  0  0  0  0  0  0  0  0  0  0
   -0.8500    1.2000    0.0000 O   0  0  0  0  0  0  0  0  0  0  0  0
    0.1667    1.2000    0.0000 C   0  0  0  0  0  0  0  0  0  0  0  0
   -2.8708    1.2000    0.0000 O   0  0  0  0  0  0  0  0  0  0  0  0
    1.1667    1.7625    0.0000 C   0  0  0  0  0  0  0  0  0  0  0  0
    0.1667    1.7625    0.0000 C   0  0  0  0  0  0  0  0  0  0  0  0
    0.6667    0.9000    0.0000 C   0  0  0  0  0  0  0  0  0  0  0  0
    0.6667    2.0625    0.0000 C   0  0  0  0  0  0  0  0  0  0  0  0
    1.1667    1.2000    0.0000 C   0  0  0  0  0  0  0  0  0  0  0  0
   -0.8500    1.7625    0.0000 C   0  0  0  0  0  0  0  0  0  0  0  0
   -1.3500    2.6208    0.0000 C   0  0  0  0  0  0  0  0  0  0  0  0
    1.6667    2.0625    0.0000 C   0  0  0  0  0  0  0  0  0  0  0  0
    1.6667    2.6458    0.0000 C   0  0  0  0  0  0  0  0  0  0  0  0
   -2.3708    2.3208    0.0000 Cl  0  5  0  0  0  0  0  0  0  0  0  0
  2  1  1  0  0  0  0
  3  2  2  0  0  0  0
  4  1  1  0  0  0  0
  5  3  1  0  0  0  0
  6  9  2  0  0  0  0
  7  1  2  0  0  0  0
  8  4  1  0  0  0  0
  9  7  1  0  0  0  0
 10  5  1  0  0  0  0
 11  5  2  0  0  0  0
 12 10  1  0  0  0  0
 13  2  1  0  0  0  0
 14 12  1  0  0  0  0
 15  7  1  0  0  0  0
 16 20  2  0  0  0  0
 17 14  1  0  0  0  0
 18 14  2  0  0  0  0
 19 17  2  0  0  0  0
 20 18  1  0  0  0  0
 21  8  1  0  0  0  0
 22  8  1  0  0  0  0
 23 16  1  0  0  0  0
 24 23  1  0  0  0  0
  3  6  1  0  0  0  0
 19 16  1  0  0  0  0
M  CHG  2   8   1  25  -1
M  END
> <#>
1304

> <PLATE>
LAT017

> <ROW>
H

> <COL>
4

> <COORD>
H04

> <LATID>
LAT017H04

> <Supplier>
Chembridge

> <Suplier_CAT#>
6632718

> <Name>
Novel

> <Concentration_(mM)>
2.5

> <IC50_(µM)>
>100

> <Yeast_Active?>
-

> <Pubchem_CID>
854381

$$$$
