
  -ISIS-  08130814242D

 32 35  0  0  0  0  0  0  0  0999 V2000
    6.3167    3.2375    0.0000 N   0  0  3  0  0  0  0  0  0  0  0  0
    6.7625    3.8458    0.0000 C   0  0  0  0  0  0  0  0  0  0  0  0
    6.3167    4.4417    0.0000 N   0  0  0  0  0  0  0  0  0  0  0  0
    5.6042    3.4708    0.0000 C   0  0  0  0  0  0  0  0  0  0  0  0
    5.6042    4.2167    0.0000 N   0  0  0  0  0  0  0  0  0  0  0  0
    7.5125    3.8458    0.0000 C   0  0  0  0  0  0  0  0  0  0  0  0
    6.5542    2.5250    0.0000 C   0  0  0  0  0  0  0  0  0  0  0  0
    6.0500    1.9708    0.0000 C   0  0  0  0  0  0  0  0  0  0  0  0
    5.0000    3.0333    0.0000 S   0  0  0  0  0  0  0  0  0  0  0  0
    7.2875    2.3708    0.0000 C   0  0  0  0  0  0  0  0  0  0  0  0
    3.7750    3.0083    0.0000 C   0  0  0  0  0  0  0  0  0  0  0  0
    7.8875    4.4792    0.0000 C   0  0  0  0  0  0  0  0  0  0  0  0
    3.0875    3.3125    0.0000 N   0  0  0  0  0  0  0  0  0  0  0  0
    6.2792    1.2583    0.0000 C   0  0  0  0  0  0  0  0  0  0  0  0
    3.8500    2.2708    0.0000 O   0  0  0  0  0  0  0  0  0  0  0  0
    4.3792    3.4458    0.0000 C   0  0  0  0  0  0  0  0  0  0  0  0
    7.5167    1.6583    0.0000 C   0  0  0  0  0  0  0  0  0  0  0  0
    7.0167    1.0958    0.0000 C   0  0  0  0  0  0  0  0  0  0  0  0
    2.5667    2.7708    0.0000 C   0  0  0  0  0  0  0  0  0  0  0  0
    7.8875    3.1958    0.0000 C   0  0  0  0  0  0  0  0  0  0  0  0
    7.5125    5.1375    0.0000 O   0  0  0  0  0  0  0  0  0  0  0  0
    1.8792    3.0833    0.0000 C   0  0  0  0  0  0  0  0  0  0  0  0
    5.3167    2.1208    0.0000 C   0  0  0  0  0  0  0  0  0  0  0  0
    8.6375    4.4792    0.0000 C   0  0  0  0  0  0  0  0  0  0  0  0
    7.2500    0.3833    0.0000 C   0  0  0  0  0  0  0  0  0  0  0  0
    1.8042    3.8333    0.0000 C   0  0  0  0  0  0  0  0  0  0  0  0
    1.2750    2.6458    0.0000 C   0  0  0  0  0  0  0  0  0  0  0  0
    8.6375    3.1958    0.0000 C   0  0  0  0  0  0  0  0  0  0  0  0
    9.0125    3.8458    0.0000 C   0  0  0  0  0  0  0  0  0  0  0  0
    1.1167    4.1250    0.0000 C   0  0  0  0  0  0  0  0  0  0  0  0
    0.5917    2.9458    0.0000 C   0  0  0  0  0  0  0  0  0  0  0  0
    0.5125    3.6875    0.0000 C   0  0  0  0  0  0  0  0  0  0  0  0
  2  1  1  0  0  0  0
  3  2  2  0  0  0  0
  4  1  1  0  0  0  0
  5  4  2  0  0  0  0
  6  2  1  0  0  0  0
  7  1  1  0  0  0  0
  8  7  2  0  0  0  0
  9  4  1  0  0  0  0
 10  7  1  0  0  0  0
 11 16  1  0  0  0  0
 12  6  2  0  0  0  0
 13 11  1  0  0  0  0
 14  8  1  0  0  0  0
 15 11  2  0  0  0  0
 16  9  1  0  0  0  0
 17 10  2  0  0  0  0
 18 17  1  0  0  0  0
 19 13  1  0  0  0  0
 20  6  1  0  0  0  0
 21 12  1  0  0  0  0
 22 19  1  0  0  0  0
 23  8  1  0  0  0  0
 24 12  1  0  0  0  0
 25 18  1  0  0  0  0
 26 22  1  0  0  0  0
 27 22  2  0  0  0  0
 28 20  2  0  0  0  0
 29 28  1  0  0  0  0
 30 26  2  0  0  0  0
 31 27  1  0  0  0  0
 32 31  2  0  0  0  0
  5  3  1  0  0  0  0
 14 18  2  0  0  0  0
 24 29  2  0  0  0  0
 32 30  1  0  0  0  0
M  END
> <#>
1715

> <PLATE>
LAT022

> <ROW>
C

> <COL>
6

> <COORD>
C06

> <LATID>
LAT022C06

> <Supplier>
Chembridge

> <Suplier_CAT#>
7981748

> <Name>
Novel

> <Concentration_(mM)>
2.5

> <IC50_(µM)>
>100

> <Yeast_Active?>
-

> <Pubchem_CID>
NULL

$$$$
