
  -ISIS-  08130814242D

 19 22  0  0  0  0  0  0  0  0999 V2000
   -0.8958   -1.3292    0.0000 C   0  0  3  0  0  0  0  0  0  0  0  0
   -1.6625   -3.3375    0.0000 N   0  0  3  0  0  0  0  0  0  0  0  0
   -0.2708   -2.8000    0.0000 N   0  0  3  0  0  0  0  0  0  0  0  0
   -1.8625   -2.6667    0.0000 N   0  0  3  0  0  0  0  0  0  0  0  0
   -0.5000   -0.5042    0.0000 C   0  0  0  0  0  0  0  0  0  0  0  0
   -1.7125   -1.7667    0.0000 C   0  0  0  0  0  0  0  0  0  0  0  0
   -0.2208   -1.9500    0.0000 C   0  0  0  0  0  0  0  0  0  0  0  0
   -1.5333   -2.0000    0.0000 C   0  0  0  0  0  0  0  0  0  0  0  0
   -2.4500   -3.3875    0.0000 C   0  0  0  0  0  0  0  0  0  0  0  0
   -0.7625   -3.5667    0.0000 C   0  0  0  0  0  0  0  0  0  0  0  0
   -1.1458   -3.2542    0.0000 C   0  0  0  0  0  0  0  0  0  0  0  0
   -1.0500    0.2333    0.0000 C   0  0  0  0  0  0  0  0  0  0  0  0
    0.4167   -0.4042    0.0000 O   0  0  0  0  0  0  0  0  0  0  0  0
   -1.9708    0.1208    0.0000 C   0  0  0  0  0  0  0  0  0  0  0  0
   -0.7125    1.0833    0.0000 C   0  0  0  0  0  0  0  0  0  0  0  0
   -2.1958    1.7000    0.0000 C   0  0  0  0  0  0  0  0  0  0  0  0
   -2.5458    0.8500    0.0000 C   0  0  0  0  0  0  0  0  0  0  0  0
   -1.2708    1.8333    0.0000 C   0  0  0  0  0  0  0  0  0  0  0  0
   -2.7708    2.4333    0.0000 Br  0  0  0  0  0  0  0  0  0  0  0  0
  2  8  1  0  0  0  0
  3  7  1  0  0  0  0
  4  6  1  0  0  0  0
  5  1  1  0  0  0  0
  6  1  1  0  0  0  0
  7  1  1  0  0  0  0
  8  1  1  0  0  0  0
  9  2  1  0  0  0  0
 10  2  1  0  0  0  0
 11  3  1  0  0  0  0
 12  5  1  0  0  0  0
 13  5  2  0  0  0  0
 14 12  2  0  0  0  0
 15 12  1  0  0  0  0
 16 18  1  0  0  0  0
 17 14  1  0  0  0  0
 18 15  2  0  0  0  0
 19 16  1  0  0  0  0
  3 10  1  0  0  0  0
  4  9  1  0  0  0  0
 11  4  1  0  0  0  0
 17 16  2  0  0  0  0
M  END
> <#>
2029

> <PLATE>
LAT026

> <ROW>
E

> <COL>
5

> <COORD>
E05

> <LATID>
LAT026E05

> <Supplier>
Chembridge

> <Suplier_CAT#>
5705437

> <Sec_Name>
225_C02

> <Concentration_(mM)>
2.5

> <IC50_(µM)>
inactive

> <Yeast_Active?>
-

> <Pubchem_CID>
3100936

$$$$
