
  -ISIS-  08130814242D

 16 17  0  0  0  0  0  0  0  0999 V2000
    0.3167    0.2000    0.0000 C   0  0  0  0  0  0  0  0  0  0  0  0
    1.2167    0.1833    0.0000 C   0  0  0  0  0  0  0  0  0  0  0  0
    0.7792   -0.0542    0.0000 C   0  0  0  0  0  0  0  0  0  0  0  0
    2.0875    0.1208    0.0000 C   0  0  0  0  0  0  0  0  0  0  0  0
    1.6375   -0.0917    0.0000 C   0  0  0  0  0  0  0  0  0  0  0  0
    2.5500   -0.0917    0.0000 O   0  0  0  0  0  0  0  0  0  0  0  0
    0.3167    0.7000    0.0000 C   0  0  0  0  0  0  0  0  0  0  0  0
    2.1500    0.6125    0.0000 C   0  0  0  0  0  0  0  0  0  0  0  0
    2.9000    0.2625    0.0000 C   0  0  0  0  0  0  0  0  0  0  0  0
    2.6375    0.7125    0.0000 C   0  0  0  0  0  0  0  0  0  0  0  0
    0.7542   -0.5542    0.0000 O   0  0  0  0  0  0  0  0  0  0  0  0
    0.7792    0.9625    0.0000 O   0  0  0  0  0  0  0  0  0  0  0  0
   -0.1208   -0.0542    0.0000 C   0  0  0  0  0  0  0  0  0  0  0  0
   -0.1208    0.9625    0.0000 C   0  0  0  0  0  0  0  0  0  0  0  0
   -0.5458    0.2000    0.0000 C   0  0  0  0  0  0  0  0  0  0  0  0
   -0.5458    0.7000    0.0000 C   0  0  0  0  0  0  0  0  0  0  0  0
  2  3  1  0  0  0  0
  3  1  1  0  0  0  0
  4  5  1  0  0  0  0
  5  2  2  0  0  0  0
  6  4  1  0  0  0  0
  7  1  2  0  0  0  0
  8  4  2  0  0  0  0
  9  6  1  0  0  0  0
 10  8  1  0  0  0  0
 11  3  2  0  0  0  0
 12  7  1  0  0  0  0
 13  1  1  0  0  0  0
 14  7  1  0  0  0  0
 15 13  2  0  0  0  0
 16 15  1  0  0  0  0
 14 16  2  0  0  0  0
  9 10  2  0  0  0  0
M  END
> <#>
1293

> <PLATE>
LAT017

> <ROW>
E

> <COL>
3

> <COORD>
E03

> <LATID>
LAT017E03

> <Supplier>
Chembridge

> <Suplier_CAT#>
6875006

> <Name>
Novel

> <Concentration_(mM)>
2.5

> <IC50_(µM)>
>100

> <Yeast_Active?>
-

> <Pubchem_CID>
240055

$$$$
