
  -ISIS-  08130814242D

 24 26  0  0  0  0  0  0  0  0999 V2000
    2.0875   -1.3375    0.0000 N   0  0  3  0  0  0  0  0  0  0  0  0
    0.7875   -0.9792    0.0000 C   0  0  0  0  0  0  0  0  0  0  0  0
    1.2792   -1.4667    0.0000 C   0  0  3  0  0  0  0  0  0  0  0  0
    2.5750   -2.0042    0.0000 C   0  0  0  0  0  0  0  0  0  0  0  0
    0.7875   -0.1417    0.0000 C   0  0  0  0  0  0  0  0  0  0  0  0
    1.3042    0.3500    0.0000 N   0  0  0  0  0  0  0  0  0  0  0  0
    2.1125    0.2000    0.0000 C   0  0  0  0  0  0  0  0  0  0  0  0
    2.4750   -0.5792    0.0000 C   0  0  0  0  0  0  0  0  0  0  0  0
    0.0750   -1.3917    0.0000 C   0  0  0  0  0  0  0  0  0  0  0  0
    2.5667   -2.8292    0.0000 O   0  0  0  0  0  0  0  0  0  0  0  0
    1.2792   -2.2917    0.0000 C   0  0  0  0  0  0  0  0  0  0  0  0
    2.6167    0.8500    0.0000 O   0  0  0  0  0  0  0  0  0  0  0  0
    0.0750    0.2625    0.0000 C   0  0  0  0  0  0  0  0  0  0  0  0
    3.3917   -1.9167    0.0000 O   0  0  0  0  0  0  0  0  0  0  0  0
   -0.6375   -0.9792    0.0000 C   0  0  0  0  0  0  0  0  0  0  0  0
   -0.6375   -0.1500    0.0000 C   0  0  0  0  0  0  0  0  0  0  0  0
   -1.3583   -1.3917    0.0000 Br  0  0  0  0  0  0  0  0  0  0  0  0
    1.9792   -2.7042    0.0000 C   0  0  0  0  0  0  0  0  0  0  0  0
    0.5542   -2.6917    0.0000 C   0  0  0  0  0  0  0  0  0  0  0  0
    3.8042   -1.2000    0.0000 C   0  0  0  0  0  0  0  0  0  0  0  0
    4.6000   -0.9792    0.0000 C   0  0  0  0  0  0  0  0  0  0  0  0
    0.5500   -3.5167    0.0000 C   0  0  0  0  0  0  0  0  0  0  0  0
    1.9750   -3.5292    0.0000 C   0  0  0  0  0  0  0  0  0  0  0  0
    1.2542   -3.9375    0.0000 C   0  0  0  0  0  0  0  0  0  0  0  0
  2  3  1  0  0  0  0
  3  1  1  0  0  0  0
  4  1  1  0  0  0  0
  5  2  1  0  0  0  0
  6  7  1  0  0  0  0
  7  8  1  0  0  0  0
  8  1  1  0  0  0  0
  9  2  2  0  0  0  0
 10  4  2  0  0  0  0
 11  3  1  0  0  0  0
 12  7  2  0  0  0  0
 13  5  2  0  0  0  0
 14  4  1  0  0  0  0
 15  9  1  0  0  0  0
 16 15  2  0  0  0  0
 17 15  1  0  0  0  0
 18 11  1  0  0  0  0
 19 11  2  0  0  0  0
 20 14  1  0  0  0  0
 21 20  1  0  0  0  0
 22 19  1  0  0  0  0
 23 18  2  0  0  0  0
 24 22  2  0  0  0  0
  6  5  1  0  0  0  0
 23 24  1  0  0  0  0
 13 16  1  0  0  0  0
M  END
> <#>
847

> <PLATE>
LAT011

> <ROW>
G

> <COL>
7

> <COORD>
G07

> <LATID>
LAT011G07

> <Supplier>
Chembridge

> <Suplier_CAT#>
5647755

> <Name>
Novel

> <Sec_Name>
198_B09

> <Concentration_(mM)>
2.5

> <IC50_(µM)>
58

> <Yeast_Active?>
-

> <Pubchem_CID>
1070154

$$$$
