
  -ISIS-  08130814242D

  2  0  0  0  0  0  0  0  0  0999 V2000
    6.1323   -3.3047    0.0000 Cs  0  3  0  0  0  0  0  0  0  0  0  0
    7.0246   -3.3047    0.0000 Cl  0  5  0  0  0  0  0  0  0  0  0  0
M  CHG  2   1   1   2  -1
M  END
> <#>
532

> <PLATE>
LAT007

> <ROW>
D

> <COL>
8

> <COORD>
D08

> <LATID>
LAT007D08

> <Supplier>
Mallinckrodt

> <Suplier_CAT#>
7764

> <Name>
Cesium Chloride

> <Concentration_(mM)>
2.5

> <IC50_(µM)>
inactive

> <Yeast_Active?>
-

> <Pubchem_CID>
5354617

$$$$
