
  -ISIS-  08130814242D

 20 22  0  0  0  0  0  0  0  0999 V2000
   -1.4208   -0.0542    0.0000 C   0  0  0  0  0  0  0  0  0  0  0  0
   -1.4208    0.8833    0.0000 N   0  0  3  0  0  0  0  0  0  0  0  0
   -0.6125   -0.5292    0.0000 N   0  0  3  0  0  0  0  0  0  0  0  0
   -2.2333   -0.5292    0.0000 N   0  0  0  0  0  0  0  0  0  0  0  0
    0.2000   -0.0542    0.0000 C   0  0  0  0  0  0  0  0  0  0  0  0
    0.2000    0.8833    0.0000 C   0  0  0  0  0  0  0  0  0  0  0  0
   -3.0458    0.8833    0.0000 C   0  0  0  0  0  0  0  0  0  0  0  0
   -3.0458   -0.0542    0.0000 C   0  0  0  0  0  0  0  0  0  0  0  0
    1.0875   -0.5792    0.0000 C   0  0  0  0  0  0  0  0  0  0  0  0
   -0.6125   -1.5542    0.0000 C   0  0  0  0  0  0  0  0  0  0  0  0
   -3.8500    1.3500    0.0000 C   0  0  0  0  0  0  0  0  0  0  0  0
   -3.8500   -0.5292    0.0000 C   0  0  0  0  0  0  0  0  0  0  0  0
    1.9792   -0.0542    0.0000 C   0  0  0  0  0  0  0  0  0  0  0  0
    1.0875   -1.6167    0.0000 C   0  0  0  0  0  0  0  0  0  0  0  0
   -4.6625    0.8833    0.0000 C   0  0  0  0  0  0  0  0  0  0  0  0
   -4.6625   -0.0542    0.0000 C   0  0  0  0  0  0  0  0  0  0  0  0
    2.8875   -0.5792    0.0000 C   0  0  0  0  0  0  0  0  0  0  0  0
    1.9875   -2.1375    0.0000 C   0  0  0  0  0  0  0  0  0  0  0  0
    2.8875   -1.6167    0.0000 C   0  0  0  0  0  0  0  0  0  0  0  0
    4.8167   -1.9875    0.0000 Cl  0  0  0  0  0  0  0  0  0  0  0  0
  2  1  1  0  0  0  0
  3  1  1  0  0  0  0
  4  1  2  0  0  0  0
  5  3  1  0  0  0  0
  6  2  1  0  0  0  0
  7  2  1  0  0  0  0
  8  4  1  0  0  0  0
  9  5  1  0  0  0  0
 10  3  1  0  0  0  0
 11  7  1  0  0  0  0
 12  8  1  0  0  0  0
 13  9  2  0  0  0  0
 14  9  1  0  0  0  0
 15 11  2  0  0  0  0
 16 12  2  0  0  0  0
 17 13  1  0  0  0  0
 18 14  2  0  0  0  0
 19 18  1  0  0  0  0
  7  8  2  0  0  0  0
  5  6  2  0  0  0  0
 16 15  1  0  0  0  0
 17 19  2  0  0  0  0
M  END
> <#>
647

> <PLATE>
LAT009

> <ROW>
G

> <COL>
2

> <COORD>
G02

> <LATID>
LAT009G02

> <Supplier>
Chembridge

> <Suplier_CAT#>
5524595

> <Name>
Novel

> <Sec_Name>
146_E10

> <Concentration_(mM)>
2.5

> <IC50_(µM)>
18

> <Yeast_Active?>
-

> <Pubchem_CID>
696308

$$$$
