
  -ISIS-  08130814242D

 30 33  0  0  0  0  0  0  0  0999 V2000
   -2.7333    0.2833    0.0000 N   0  0  3  0  0  0  0  0  0  0  0  0
   -3.3458    0.6125    0.0000 C   0  0  0  0  0  0  0  0  0  0  0  0
   -3.3458    1.3000    0.0000 N   0  0  0  0  0  0  0  0  0  0  0  0
   -2.1333    0.6125    0.0000 C   0  0  0  0  0  0  0  0  0  0  0  0
   -2.1333    1.3000    0.0000 N   0  0  0  0  0  0  0  0  0  0  0  0
   -0.2208    0.2500    0.0000 C   0  0  0  0  0  0  0  0  0  0  0  0
   -1.5000    0.2500    0.0000 S   0  0  0  0  0  0  0  0  0  0  0  0
   -2.7333   -0.3667    0.0000 C   0  0  0  0  0  0  0  0  0  0  0  0
    1.0042    0.2500    0.0000 N   0  0  0  0  0  0  0  0  0  0  0  0
   -3.9958    0.2500    0.0000 C   0  0  0  0  0  0  0  0  0  0  0  0
    0.4042    0.6125    0.0000 N   0  0  0  0  0  0  0  0  0  0  0  0
   -0.2208   -0.4292    0.0000 O   0  0  0  0  0  0  0  0  0  0  0  0
    3.5167    0.2500    0.0000 N   0  0  0  0  0  0  0  0  0  0  0  0
   -0.8708    0.5958    0.0000 C   0  0  0  0  0  0  0  0  0  0  0  0
    1.6667    0.6125    0.0000 C   0  0  0  0  0  0  0  0  0  0  0  0
    2.2667    0.2500    0.0000 C   0  0  0  0  0  0  0  0  0  0  0  0
    2.9000    0.6125    0.0000 C   0  0  0  0  0  0  0  0  0  0  0  0
    3.5167   -0.4667    0.0000 C   0  0  0  0  0  0  0  0  0  0  0  0
   -2.0958   -0.7292    0.0000 C   0  0  0  0  0  0  0  0  0  0  0  0
   -3.3500   -0.7292    0.0000 C   0  0  0  0  0  0  0  0  0  0  0  0
   -3.9958   -0.4875    0.0000 C   0  0  0  0  0  0  0  0  0  0  0  0
   -4.6208    0.6333    0.0000 C   0  0  0  0  0  0  0  0  0  0  0  0
    2.2667   -0.4667    0.0000 C   0  0  0  0  0  0  0  0  0  0  0  0
    2.9042   -0.8167    0.0000 C   0  0  0  0  0  0  0  0  0  0  0  0
   -3.3500   -1.4667    0.0000 C   0  0  0  0  0  0  0  0  0  0  0  0
   -2.0958   -1.4667    0.0000 C   0  0  0  0  0  0  0  0  0  0  0  0
   -5.2708    0.2625    0.0000 C   0  0  0  0  0  0  0  0  0  0  0  0
   -4.6208   -0.8500    0.0000 C   0  0  0  0  0  0  0  0  0  0  0  0
   -5.2708   -0.4792    0.0000 C   0  0  0  0  0  0  0  0  0  0  0  0
   -2.7333   -1.8500    0.0000 C   0  0  0  0  0  0  0  0  0  0  0  0
  2  1  1  0  0  0  0
  3  2  2  0  0  0  0
  4  1  1  0  0  0  0
  5  4  2  0  0  0  0
  6 14  1  0  0  0  0
  7  4  1  0  0  0  0
  8  1  1  0  0  0  0
  9 11  1  0  0  0  0
 10  2  1  0  0  0  0
 11  6  1  0  0  0  0
 12  6  2  0  0  0  0
 13 17  1  0  0  0  0
 14  7  1  0  0  0  0
 15  9  2  0  0  0  0
 16 15  1  0  0  0  0
 17 16  2  0  0  0  0
 18 24  1  0  0  0  0
 19  8  1  0  0  0  0
 20  8  2  0  0  0  0
 21 10  2  0  0  0  0
 22 10  1  0  0  0  0
 23 16  1  0  0  0  0
 24 23  2  0  0  0  0
 25 20  1  0  0  0  0
 26 19  2  0  0  0  0
 27 22  2  0  0  0  0
 28 21  1  0  0  0  0
 29 27  1  0  0  0  0
 30 25  2  0  0  0  0
  3  5  1  0  0  0  0
 30 26  1  0  0  0  0
 29 28  2  0  0  0  0
 18 13  2  0  0  0  0
M  END
> <#>
1691

> <PLATE>
LAT022

> <ROW>
C

> <COL>
3

> <COORD>
C03

> <LATID>
LAT022C03

> <Supplier>
Chembridge

> <Suplier_CAT#>
5749338

> <Name>
Novel

> <Concentration_(mM)>
2.5

> <IC50_(µM)>
inactive

> <Yeast_Active?>
-

> <Pubchem_CID>
1364207

$$$$
