
  -ISIS-  08130814242D

 29 31  0  0  0  0  0  0  0  0999 V2000
   -2.0083    3.2125    0.0000 C   0  0  0  0  0  0  0  0  0  0  0  0
   -0.0583    2.8375    0.0000 C   0  0  0  0  0  0  0  0  0  0  0  0
   -1.3583    2.8375    0.0000 N   0  0  0  0  0  0  0  0  0  0  0  0
   -0.7083    3.2125    0.0000 C   0  0  3  0  0  0  0  0  0  0  0  0
    0.5917    3.2125    0.0000 N   0  0  0  0  0  0  0  0  0  0  0  0
    2.5417    2.8375    0.0000 N   0  0  0  0  0  0  0  0  0  0  0  0
   -2.0083    3.9625    0.0000 O   0  0  0  0  0  0  0  0  0  0  0  0
   -0.7083    3.9625    0.0000 C   0  0  0  0  0  0  0  0  0  0  0  0
   -0.0583    2.0875    0.0000 O   0  0  0  0  0  0  0  0  0  0  0  0
   -2.6500    2.8375    0.0000 O   0  0  0  0  0  0  0  0  0  0  0  0
    1.2417    2.8375    0.0000 C   0  0  0  0  0  0  0  0  0  0  0  0
    1.8917    3.2125    0.0000 C   0  0  0  0  0  0  0  0  0  0  0  0
   -3.3000    3.2125    0.0000 C   0  0  0  0  0  0  0  0  0  0  0  0
   -0.0583    4.3292    0.0000 C   0  0  0  0  0  0  0  0  0  0  0  0
   -3.9583    2.8375    0.0000 C   0  0  0  0  0  0  0  0  0  0  0  0
    3.1917    3.2125    0.0000 C   0  0  0  0  0  0  0  0  0  0  0  0
    1.8917    3.9625    0.0000 C   0  0  0  0  0  0  0  0  0  0  0  0
    0.5917    3.9625    0.0000 C   0  0  0  0  0  0  0  0  0  0  0  0
   -0.0583    5.0792    0.0000 C   0  0  0  0  0  0  0  0  0  0  0  0
   -4.6000    3.2125    0.0000 C   0  0  0  0  0  0  0  0  0  0  0  0
   -3.9583    2.0875    0.0000 C   0  0  0  0  0  0  0  0  0  0  0  0
    3.1917    3.9625    0.0000 C   0  0  0  0  0  0  0  0  0  0  0  0
    0.5917    5.4542    0.0000 C   0  0  0  0  0  0  0  0  0  0  0  0
   -5.2500    2.8375    0.0000 C   0  0  0  0  0  0  0  0  0  0  0  0
   -4.6000    1.7125    0.0000 C   0  0  0  0  0  0  0  0  0  0  0  0
    1.2417    4.3292    0.0000 C   0  0  0  0  0  0  0  0  0  0  0  0
    2.5417    4.3292    0.0000 C   0  0  0  0  0  0  0  0  0  0  0  0
   -5.2500    2.0875    0.0000 C   0  0  0  0  0  0  0  0  0  0  0  0
    1.2417    5.0792    0.0000 C   0  0  0  0  0  0  0  0  0  0  0  0
  2  4  1  0  0  0  0
  3  1  1  0  0  0  0
  4  3  1  0  0  0  0
  5  2  1  0  0  0  0
  6 12  2  0  0  0  0
  7  1  2  0  0  0  0
  8  4  1  0  0  0  0
  9  2  2  0  0  0  0
 10  1  1  0  0  0  0
 11  5  1  0  0  0  0
 12 11  1  0  0  0  0
 13 10  1  0  0  0  0
 14  8  1  0  0  0  0
 15 13  1  0  0  0  0
 16  6  1  0  0  0  0
 17 12  1  0  0  0  0
 18 14  2  0  0  0  0
 19 14  1  0  0  0  0
 20 15  1  0  0  0  0
 21 15  2  0  0  0  0
 22 27  1  0  0  0  0
 23 19  2  0  0  0  0
 24 20  2  0  0  0  0
 25 21  1  0  0  0  0
 26 18  1  0  0  0  0
 27 17  2  0  0  0  0
 28 25  2  0  0  0  0
 29 23  1  0  0  0  0
 28 24  1  0  0  0  0
 29 26  2  0  0  0  0
 22 16  2  0  0  0  0
M  END
> <#>
1479

> <PLATE>
LAT019

> <ROW>
G

> <COL>
6

> <COORD>
G06

> <LATID>
LAT019G06

> <Supplier>
Chembridge

> <Suplier_CAT#>
7952199

> <Name>
Novel

> <Concentration_(mM)>
2.5

> <IC50_(µM)>
>100

> <Yeast_Active?>
-

> <Pubchem_CID>
1811574

$$$$
