
  -ISIS-  08130814242D

 12 12  0  0  0  0  0  0  0  0999 V2000
    3.2292   -3.5792    0.0000 C   0  0  0  0  0  0  0  0  0  0  0  0
    2.8167   -4.2917    0.0000 O   0  0  0  0  0  0  0  0  0  0  0  0
    4.0500   -3.5792    0.0000 O   0  0  0  0  0  0  0  0  0  0  0  0
    0.7625   -2.1542    0.0000 C   0  0  0  0  0  0  0  0  0  0  0  0
    2.8167   -2.8667    0.0000 C   0  0  0  0  0  0  0  0  0  0  0  0
    1.9917   -2.8667    0.0000 C   0  0  0  0  0  0  0  0  0  0  0  0
    1.5792   -2.1542    0.0000 C   0  0  0  0  0  0  0  0  0  0  0  0
    0.3500   -2.8667    0.0000 C   0  0  0  0  0  0  0  0  0  0  0  0
    0.3500   -1.4417    0.0000 C   0  0  0  0  0  0  0  0  0  0  0  0
   -0.4750   -2.8667    0.0000 C   0  0  0  0  0  0  0  0  0  0  0  0
   -0.4750   -1.4417    0.0000 C   0  0  0  0  0  0  0  0  0  0  0  0
   -0.8833   -2.1542    0.0000 C   0  0  0  0  0  0  0  0  0  0  0  0
  2  1  2  0  0  0  0
  3  1  1  0  0  0  0
  4  7  1  0  0  0  0
  5  1  1  0  0  0  0
  6  5  1  0  0  0  0
  7  6  1  0  0  0  0
  8  4  1  0  0  0  0
  9  4  2  0  0  0  0
 10  8  2  0  0  0  0
 11  9  1  0  0  0  0
 12 11  2  0  0  0  0
 10 12  1  0  0  0  0
M  END
> <#>
68

> <PLATE>
LAT001

> <ROW>
D

> <COL>
10

> <COORD>
D10

> <LATID>
LAT001D10

> <Supplier>
Microsource

> <Suplier_CAT#>
00306001

> <Name>
Phenylbutyric Acid

> <Concentration_(mM)>
2.5

> <IC50_(µM)>
6.3

> <Yeast_Active?>
-

> <Pubchem_CID>
4775

> <Description>
Antiinflammatory

$$$$
