
  -ISIS-  08130814242D

 21 22  0  0  0  0  0  0  0  0999 V2000
    1.3667   -0.6292    0.0000 C   0  0  0  0  0  0  0  0  0  0  0  0
    1.8500   -1.4500    0.0000 C   0  0  0  0  0  0  0  0  0  0  0  0
    1.8500    0.1958    0.0000 C   0  0  0  0  0  0  0  0  0  0  0  0
    0.4292   -0.6292    0.0000 C   0  0  0  0  0  0  0  0  0  0  0  0
   -1.0125    0.1958    0.0000 N   0  0  0  0  0  0  0  0  0  0  0  0
   -0.0500    0.1958    0.0000 N   0  0  0  0  0  0  0  0  0  0  0  0
    2.7875   -1.4500    0.0000 C   0  0  0  0  0  0  0  0  0  0  0  0
    2.7875    0.1958    0.0000 C   0  0  0  0  0  0  0  0  0  0  0  0
   -1.4708    1.0125    0.0000 C   0  0  0  0  0  0  0  0  0  0  0  0
    3.2667   -0.6292    0.0000 C   0  0  0  0  0  0  0  0  0  0  0  0
   -2.4333    1.0125    0.0000 C   0  0  0  0  0  0  0  0  0  0  0  0
   -0.0500   -1.4500    0.0000 O   0  0  0  0  0  0  0  0  0  0  0  0
   -3.8500    0.1958    0.0000 N   0  0  0  0  0  0  0  0  0  0  0  0
    1.3667   -2.2667    0.0000 Cl  0  0  0  0  0  0  0  0  0  0  0  0
    1.3667    1.0125    0.0000 Cl  0  0  0  0  0  0  0  0  0  0  0  0
    4.2042   -0.6292    0.0000 Cl  0  0  0  0  0  0  0  0  0  0  0  0
   -2.8958    0.1958    0.0000 C   0  0  0  0  0  0  0  0  0  0  0  0
   -2.8958    1.8333    0.0000 C   0  0  0  0  0  0  0  0  0  0  0  0
   -4.3125    1.0125    0.0000 C   0  0  0  0  0  0  0  0  0  0  0  0
   -1.0125    1.8333    0.0000 C   0  0  0  0  0  0  0  0  0  0  0  0
   -3.8500    1.8333    0.0000 C   0  0  0  0  0  0  0  0  0  0  0  0
  2  1  1  0  0  0  0
  3  1  2  0  0  0  0
  4  1  1  0  0  0  0
  5  6  1  0  0  0  0
  6  4  1  0  0  0  0
  7  2  2  0  0  0  0
  8  3  1  0  0  0  0
  9  5  2  0  0  0  0
 10  8  2  0  0  0  0
 11  9  1  0  0  0  0
 12  4  2  0  0  0  0
 13 17  1  0  0  0  0
 14  2  1  0  0  0  0
 15  3  1  0  0  0  0
 16 10  1  0  0  0  0
 17 11  2  0  0  0  0
 18 11  1  0  0  0  0
 19 21  1  0  0  0  0
 20  9  1  0  0  0  0
 21 18  2  0  0  0  0
  7 10  1  0  0  0  0
 19 13  2  0  0  0  0
M  END
> <#>
1677

> <PLATE>
LAT021

> <ROW>
E

> <COL>
11

> <COORD>
E11

> <LATID>
LAT021E11

> <Supplier>
Chembridge

> <Suplier_CAT#>
5636551

> <Name>
Novel

> <Concentration_(mM)>
2.5

> <IC50_(µM)>
78

> <Yeast_Active?>
-

> <Pubchem_CID>
872881

$$$$
