
  -ISIS-  08130814242D

 31 33  0  0  0  0  0  0  0  0999 V2000
    3.3667    0.8583    0.0000 S   0  0  3  0  0  0  0  0  0  0  0  0
    3.8917    1.3875    0.0000 N   0  0  0  0  0  0  0  0  0  0  0  0
    6.7417    3.3125    0.0000 C   0  0  0  0  0  0  0  0  0  0  0  0
    2.7167    1.2333    0.0000 C   0  0  0  0  0  0  0  0  0  0  0  0
    7.4667    3.1208    0.0000 N   0  0  0  0  0  0  0  0  0  0  0  0
    2.9292    0.2458    0.0000 O   0  0  0  0  0  0  0  0  0  0  0  0
    3.9417    0.3750    0.0000 O   0  0  0  0  0  0  0  0  0  0  0  0
    6.2125    2.7833    0.0000 C   0  0  0  0  0  0  0  0  0  0  0  0
    0.7667    2.3583    0.0000 C   0  0  3  0  0  0  0  0  0  0  0  0
    1.4167    1.9833    0.0000 C   0  0  0  0  0  0  0  0  0  0  0  0
    8.9167    2.7333    0.0000 N   0  0  0  0  0  0  0  0  0  0  0  0
    6.5417    4.0292    0.0000 O   0  0  0  0  0  0  0  0  0  0  0  0
    2.0667    0.8583    0.0000 C   0  0  0  0  0  0  0  0  0  0  0  0
    2.7167    1.9833    0.0000 C   0  0  0  0  0  0  0  0  0  0  0  0
    2.0667    2.3583    0.0000 C   0  0  0  0  0  0  0  0  0  0  0  0
    1.4167    1.2333    0.0000 C   0  0  0  0  0  0  0  0  0  0  0  0
    5.4875    2.9833    0.0000 C   0  0  0  0  0  0  0  0  0  0  0  0
    6.4042    2.0583    0.0000 C   0  0  0  0  0  0  0  0  0  0  0  0
    4.6167    1.1958    0.0000 C   0  0  0  0  0  0  0  0  0  0  0  0
    7.9917    3.6500    0.0000 C   0  0  0  0  0  0  0  0  0  0  0  0
    8.7167    3.4583    0.0000 C   0  0  0  0  0  0  0  0  0  0  0  0
    5.1500    1.7250    0.0000 C   0  0  0  0  0  0  0  0  0  0  0  0
    4.9542    2.4458    0.0000 C   0  0  0  0  0  0  0  0  0  0  0  0
    5.8750    1.5333    0.0000 C   0  0  0  0  0  0  0  0  0  0  0  0
    0.2375    1.8250    0.0000 C   0  0  0  0  0  0  0  0  0  0  0  0
    1.1917    2.9708    0.0000 C   0  0  0  0  0  0  0  0  0  0  0  0
    0.1917    2.8375    0.0000 C   0  0  0  0  0  0  0  0  0  0  0  0
    9.6375    2.5375    0.0000 C   0  0  0  0  0  0  0  0  0  0  0  0
    9.2500    3.9875    0.0000 C   0  0  0  0  0  0  0  0  0  0  0  0
   10.1667    3.0708    0.0000 C   0  0  0  0  0  0  0  0  0  0  0  0
    9.9750    3.7958    0.0000 C   0  0  0  0  0  0  0  0  0  0  0  0
  2  1  1  0  0  0  0
  3  8  1  0  0  0  0
  4  1  1  0  0  0  0
  5  3  1  0  0  0  0
  6  1  2  0  0  0  0
  7  1  2  0  0  0  0
  8 18  2  0  0  0  0
  9 10  1  0  0  0  0
 10 15  1  0  0  0  0
 11 21  2  0  0  0  0
 12  3  2  0  0  0  0
 13  4  2  0  0  0  0
 14  4  1  0  0  0  0
 15 14  2  0  0  0  0
 16 13  1  0  0  0  0
 17 23  2  0  0  0  0
 18 24  1  0  0  0  0
 19  2  1  0  0  0  0
 20  5  1  0  0  0  0
 21 20  1  0  0  0  0
 22 19  1  0  0  0  0
 23 22  1  0  0  0  0
 24 22  2  0  0  0  0
 25  9  1  0  0  0  0
 26  9  1  0  0  0  0
 27  9  1  0  0  0  0
 28 11  1  0  0  0  0
 29 21  1  0  0  0  0
 30 31  1  0  0  0  0
 31 29  2  0  0  0  0
 10 16  2  0  0  0  0
 17  8  1  0  0  0  0
 30 28  2  0  0  0  0
M  END
> <#>
1538

> <PLATE>
LAT020

> <ROW>
B

> <COL>
4

> <COORD>
B04

> <LATID>
LAT020B04

> <Supplier>
Chembridge

> <Suplier_CAT#>
7863263

> <Name>
Novel

> <Concentration_(mM)>
2.5

> <IC50_(µM)>
87

> <Yeast_Active?>
-

> <Pubchem_CID>
NULL

$$$$
