
  -ISIS-  08130814242D

 35 39  0  0  0  0  0  0  0  0999 V2000
    4.1667   -0.5292    0.0000 N   0  0  3  0  0  0  0  0  0  0  0  0
    3.5167   -0.0292    0.0000 C   0  0  0  0  0  0  0  0  0  0  0  0
    3.7792    0.7458    0.0000 N   0  0  0  0  0  0  0  0  0  0  0  0
    4.8417   -0.0625    0.0000 C   0  0  0  0  0  0  0  0  0  0  0  0
    4.6042    0.7250    0.0000 N   0  0  0  0  0  0  0  0  0  0  0  0
    7.7000    0.4458    0.0000 N   0  0  0  0  0  0  0  0  0  0  0  0
    8.1042    1.1625    0.0000 C   0  0  3  0  0  0  0  0  0  0  0  0
    5.6417   -0.2750    0.0000 S   0  0  0  0  0  0  0  0  0  0  0  0
    6.8750    0.4458    0.0000 C   0  0  0  0  0  0  0  0  0  0  0  0
    4.1667   -1.3542    0.0000 C   0  0  0  0  0  0  0  0  0  0  0  0
    2.7167   -0.2500    0.0000 C   0  0  0  0  0  0  0  0  0  0  0  0
    6.4625    1.1583    0.0000 O   0  0  0  0  0  0  0  0  0  0  0  0
    7.8917    1.9625    0.0000 C   0  0  0  0  0  0  0  0  0  0  0  0
    8.9292    1.1625    0.0000 C   0  0  0  0  0  0  0  0  0  0  0  0
    6.4667   -0.2750    0.0000 C   0  0  0  0  0  0  0  0  0  0  0  0
    3.4500   -1.7625    0.0000 C   0  0  0  0  0  0  0  0  0  0  0  0
    4.8750   -1.7625    0.0000 C   0  0  0  0  0  0  0  0  0  0  0  0
    2.5042   -1.0500    0.0000 C   0  0  0  0  0  0  0  0  0  0  0  0
    2.1292    0.3375    0.0000 C   0  0  0  0  0  0  0  0  0  0  0  0
    7.0917    2.1750    0.0000 C   0  0  0  0  0  0  0  0  0  0  0  0
    9.3417    0.4500    0.0000 C   0  0  0  0  0  0  0  0  0  0  0  0
    9.3417    1.8833    0.0000 C   0  0  0  0  0  0  0  0  0  0  0  0
    8.4792    2.5583    0.0000 C   0  0  0  0  0  0  0  0  0  0  0  0
    3.4417   -2.5792    0.0000 C   0  0  0  0  0  0  0  0  0  0  0  0
    1.3292    0.1250    0.0000 C   0  0  0  0  0  0  0  0  0  0  0  0
    1.7000   -1.2625    0.0000 C   0  0  0  0  0  0  0  0  0  0  0  0
    4.8667   -2.5917    0.0000 C   0  0  0  0  0  0  0  0  0  0  0  0
   10.1667    1.8750    0.0000 C   0  0  0  0  0  0  0  0  0  0  0  0
   10.1667    0.4458    0.0000 C   0  0  0  0  0  0  0  0  0  0  0  0
    6.8792    2.9833    0.0000 C   0  0  0  0  0  0  0  0  0  0  0  0
    8.2667    3.3583    0.0000 C   0  0  0  0  0  0  0  0  0  0  0  0
    4.1542   -3.0000    0.0000 C   0  0  0  0  0  0  0  0  0  0  0  0
    1.1125   -0.6750    0.0000 C   0  0  0  0  0  0  0  0  0  0  0  0
    7.4625    3.5708    0.0000 C   0  0  0  0  0  0  0  0  0  0  0  0
   10.5792    1.1583    0.0000 C   0  0  0  0  0  0  0  0  0  0  0  0
  2  1  1  0  0  0  0
  3  2  2  0  0  0  0
  4  1  1  0  0  0  0
  5  4  2  0  0  0  0
  6  9  1  0  0  0  0
  7  6  1  0  0  0  0
  8  4  1  0  0  0  0
  9 15  1  0  0  0  0
 10  1  1  0  0  0  0
 11  2  1  0  0  0  0
 12  9  2  0  0  0  0
 13  7  1  0  0  0  0
 14  7  1  0  0  0  0
 15  8  1  0  0  0  0
 16 10  2  0  0  0  0
 17 10  1  0  0  0  0
 18 11  1  0  0  0  0
 19 11  2  0  0  0  0
 20 13  1  0  0  0  0
 21 14  2  0  0  0  0
 22 14  1  0  0  0  0
 23 13  2  0  0  0  0
 24 16  1  0  0  0  0
 25 19  1  0  0  0  0
 26 18  2  0  0  0  0
 27 17  2  0  0  0  0
 28 22  2  0  0  0  0
 29 21  1  0  0  0  0
 30 20  2  0  0  0  0
 31 23  1  0  0  0  0
 32 27  1  0  0  0  0
 33 25  2  0  0  0  0
 34 31  2  0  0  0  0
 35 28  1  0  0  0  0
  3  5  1  0  0  0  0
 24 32  2  0  0  0  0
 26 33  1  0  0  0  0
 35 29  2  0  0  0  0
 30 34  1  0  0  0  0
M  END
> <#>
1728

> <PLATE>
LAT022

> <ROW>
H

> <COL>
7

> <COORD>
H07

> <LATID>
LAT022H07

> <Supplier>
Chembridge

> <Suplier_CAT#>
7533740

> <Name>
Novel

> <Concentration_(mM)>
2.5

> <IC50_(µM)>
>100

> <Yeast_Active?>
-

> <Pubchem_CID>
2192981

$$$$
