
  -ISIS-  08130814242D

 22 24  0  0  0  0  0  0  0  0999 V2000
    0.4500    0.3125    0.0000 C   0  0  3  0  0  0  0  0  0  0  0  0
   -0.4958   -0.2292    0.0000 C   0  0  0  0  0  0  0  0  0  0  0  0
    0.4667    1.4125    0.0000 C   0  0  0  0  0  0  0  0  0  0  0  0
    1.3875   -0.2292    0.0000 C   0  0  3  0  0  0  0  0  0  0  0  0
   -0.5125   -1.3042    0.0000 C   0  0  0  0  0  0  0  0  0  0  0  0
    1.3875   -1.3042    0.0000 C   0  0  0  0  0  0  0  0  0  0  0  0
   -0.3333    2.1333    0.0000 O   0  0  0  0  0  0  0  0  0  0  0  0
    1.3875    1.9333    0.0000 C   0  0  0  0  0  0  0  0  0  0  0  0
    0.1042    3.0958    0.0000 C   0  0  0  0  0  0  0  0  0  0  0  0
    0.1667   -1.6375    0.0000 O   0  0  0  0  0  0  0  0  0  0  0  0
    1.1500    2.9708    0.0000 C   0  0  0  0  0  0  0  0  0  0  0  0
    0.7292   -1.6375    0.0000 O   0  0  0  0  0  0  0  0  0  0  0  0
   -1.4125   -1.8667    0.0000 C   0  0  0  0  0  0  0  0  0  0  0  0
    2.3042    0.2958    0.0000 C   0  0  0  0  0  0  0  0  0  0  0  0
    2.3042   -1.8292    0.0000 C   0  0  0  0  0  0  0  0  0  0  0  0
   -1.3708   -2.9500    0.0000 C   0  0  0  0  0  0  0  0  0  0  0  0
   -2.3500   -1.3667    0.0000 C   0  0  0  0  0  0  0  0  0  0  0  0
    3.2292   -0.2292    0.0000 C   0  0  0  0  0  0  0  0  0  0  0  0
    3.2292   -1.3042    0.0000 C   0  0  0  0  0  0  0  0  0  0  0  0
   -3.2500   -1.9500    0.0000 C   0  0  0  0  0  0  0  0  0  0  0  0
   -2.2708   -3.5042    0.0000 C   0  0  0  0  0  0  0  0  0  0  0  0
   -3.2125   -3.0042    0.0000 C   0  0  0  0  0  0  0  0  0  0  0  0
  2  1  1  0  0  0  0
  3  1  1  0  0  0  0
  4  1  1  0  0  0  0
  5  2  1  0  0  0  0
  6  4  1  0  0  0  0
  7  3  1  0  0  0  0
  8  3  2  0  0  0  0
  9  7  1  0  0  0  0
 10  5  2  0  0  0  0
 11  8  1  0  0  0  0
 12  6  2  0  0  0  0
 13  5  1  0  0  0  0
 14  4  1  0  0  0  0
 15  6  1  0  0  0  0
 16 13  2  0  0  0  0
 17 13  1  0  0  0  0
 18 14  1  0  0  0  0
 19 18  1  0  0  0  0
 20 17  2  0  0  0  0
 21 16  1  0  0  0  0
 22 20  1  0  0  0  0
  9 11  2  0  0  0  0
 19 15  1  0  0  0  0
 21 22  2  0  0  0  0
M  END
> <#>
813

> <PLATE>
LAT011

> <ROW>
E

> <COL>
3

> <COORD>
E03

> <LATID>
LAT011E03

> <Supplier>
Chembridge

> <Suplier_CAT#>
5660227

> <Name>
Novel

> <Sec_Name>
205_D07

> <Concentration_(mM)>
2.5

> <IC50_(µM)>
59

> <Yeast_Active?>
-

> <Pubchem_CID>
763687

$$$$
