
  -ISIS-  08130814242D

 27 28  0  0  0  0  0  0  0  0999 V2000
    1.8667    2.0375    0.0000 S   0  0  3  0  0  0  0  0  0  0  0  0
    2.6167    2.0375    0.0000 C   0  0  0  0  0  0  0  0  0  0  0  0
    1.6792    2.7708    0.0000 N   0  0  0  0  0  0  0  0  0  0  0  0
    2.9917    1.3875    0.0000 C   0  0  0  0  0  0  0  0  0  0  0  0
    1.1292    1.9083    0.0000 O   0  0  0  0  0  0  0  0  0  0  0  0
    1.9375    1.2875    0.0000 O   0  0  0  0  0  0  0  0  0  0  0  0
    3.7417    1.3875    0.0000 C   0  0  0  0  0  0  0  0  0  0  0  0
    5.9917    2.6875    0.0000 C   0  0  0  0  0  0  0  0  0  0  0  0
    4.1167    2.0375    0.0000 C   0  0  0  0  0  0  0  0  0  0  0  0
    6.3667    3.3375    0.0000 N   0  0  0  0  0  0  0  0  0  0  0  0
    4.8667    2.0375    0.0000 O   0  0  0  0  0  0  0  0  0  0  0  0
    8.2417    3.9833    0.0000 N   0  0  0  0  0  0  0  0  0  0  0  0
    2.9917    2.6875    0.0000 C   0  0  0  0  0  0  0  0  0  0  0  0
    6.3667    2.0375    0.0000 O   0  0  0  0  0  0  0  0  0  0  0  0
    3.7417    2.6875    0.0000 C   0  0  0  0  0  0  0  0  0  0  0  0
    5.2417    2.6875    0.0000 C   0  0  0  0  0  0  0  0  0  0  0  0
    7.4917    3.9833    0.0000 C   0  0  0  0  0  0  0  0  0  0  0  0
    0.9542    2.9583    0.0000 C   0  0  0  0  0  0  0  0  0  0  0  0
    7.1167    3.3375    0.0000 C   0  0  0  0  0  0  0  0  0  0  0  0
    4.1167    0.7375    0.0000 C   0  0  0  0  0  0  0  0  0  0  0  0
    8.6167    4.6292    0.0000 C   0  0  0  0  0  0  0  0  0  0  0  0
    0.7542    3.6833    0.0000 C   0  0  3  0  0  0  0  0  0  0  0  0
    7.1167    4.6292    0.0000 C   0  0  0  0  0  0  0  0  0  0  0  0
    0.0292    3.8750    0.0000 C   0  0  0  0  0  0  0  0  0  0  0  0
    1.2875    4.2042    0.0000 C   0  0  0  0  0  0  0  0  0  0  0  0
    8.2417    5.2792    0.0000 C   0  0  0  0  0  0  0  0  0  0  0  0
    7.4917    5.2792    0.0000 C   0  0  0  0  0  0  0  0  0  0  0  0
  2  1  1  0  0  0  0
  3  1  1  0  0  0  0
  4  2  2  0  0  0  0
  5  1  2  0  0  0  0
  6  1  2  0  0  0  0
  7  4  1  0  0  0  0
  8 16  1  0  0  0  0
  9 15  1  0  0  0  0
 10  8  1  0  0  0  0
 11  9  1  0  0  0  0
 12 17  2  0  0  0  0
 13  2  1  0  0  0  0
 14  8  2  0  0  0  0
 15 13  2  0  0  0  0
 16 11  1  0  0  0  0
 17 19  1  0  0  0  0
 18  3  1  0  0  0  0
 19 10  1  0  0  0  0
 20  7  1  0  0  0  0
 21 12  1  0  0  0  0
 22 18  1  0  0  0  0
 23 17  1  0  0  0  0
 24 22  1  0  0  0  0
 25 22  1  0  0  0  0
 26 27  1  0  0  0  0
 27 23  2  0  0  0  0
  9  7  2  0  0  0  0
 21 26  2  0  0  0  0
M  END
> <#>
1546

> <PLATE>
LAT020

> <ROW>
B

> <COL>
5

> <COORD>
B05

> <LATID>
LAT020B05

> <Supplier>
Chembridge

> <Suplier_CAT#>
7942062

> <Name>
Novel

> <Concentration_(mM)>
2.5

> <IC50_(µM)>
inactive

> <Yeast_Active?>
-

> <Pubchem_CID>
1243316

$$$$
