
  -ISIS-  08130814242D

 20 22  0  0  0  0  0  0  0  0999 V2000
    2.1875    0.6000    0.0000 N   0  0  0  0  0  0  0  0  0  0  0  0
    2.7500    1.3625    0.0000 C   0  0  0  0  0  0  0  0  0  0  0  0
    1.2667    1.8625    0.0000 C   0  0  0  0  0  0  0  0  0  0  0  0
    1.2667    0.9000    0.0000 C   0  0  0  0  0  0  0  0  0  0  0  0
    2.1875    2.1625    0.0000 S   0  0  0  0  0  0  0  0  0  0  0  0
    0.4500    2.3625    0.0000 C   0  0  0  0  0  0  0  0  0  0  0  0
   -2.9500    0.4208    0.0000 N   0  0  3  0  0  0  0  0  0  0  0  0
    3.7042    1.3000    0.0000 S   0  0  0  0  0  0  0  0  0  0  0  0
   -2.1125    0.9000    0.0000 C   0  0  0  0  0  0  0  0  0  0  0  0
    0.4667    0.3208    0.0000 O   0  0  0  0  0  0  0  0  0  0  0  0
   -0.4333    1.8625    0.0000 C   0  0  0  0  0  0  0  0  0  0  0  0
   -4.6458   -0.5542    0.0000 O   0  0  0  0  0  0  0  0  0  0  0  0
   -2.1125    1.8625    0.0000 C   0  0  0  0  0  0  0  0  0  0  0  0
   -1.2708    0.4208    0.0000 C   0  0  0  0  0  0  0  0  0  0  0  0
   -1.2708    2.3458    0.0000 C   0  0  0  0  0  0  0  0  0  0  0  0
   -0.4333    0.9000    0.0000 C   0  0  0  0  0  0  0  0  0  0  0  0
   -3.8000    0.9125    0.0000 C   0  0  0  0  0  0  0  0  0  0  0  0
   -2.9500   -0.5542    0.0000 C   0  0  0  0  0  0  0  0  0  0  0  0
   -4.6458    0.4208    0.0000 C   0  0  0  0  0  0  0  0  0  0  0  0
   -3.8000   -1.0500    0.0000 C   0  0  0  0  0  0  0  0  0  0  0  0
  2  1  1  0  0  0  0
  3  4  1  0  0  0  0
  4  1  1  0  0  0  0
  5  2  1  0  0  0  0
  6  3  2  0  0  0  0
  7  9  1  0  0  0  0
  8  2  2  0  0  0  0
  9 14  2  0  0  0  0
 10  4  2  0  0  0  0
 11  6  1  0  0  0  0
 12 20  1  0  0  0  0
 13 15  2  0  0  0  0
 14 16  1  0  0  0  0
 15 11  1  0  0  0  0
 16 11  2  0  0  0  0
 17  7  1  0  0  0  0
 18  7  1  0  0  0  0
 19 17  1  0  0  0  0
 20 18  1  0  0  0  0
  5  3  1  0  0  0  0
 13  9  1  0  0  0  0
 12 19  1  0  0  0  0
M  END
> <#>
2065

> <PLATE>
LAT026

> <ROW>
A

> <COL>
10

> <COORD>
A10

> <LATID>
LAT026A10

> <Supplier>
Chembridge

> <Suplier_CAT#>
5650433

> <Sec_Name>
200_B03

> <Concentration_(mM)>
2.5

> <IC50_(µM)>
inactive

> <Yeast_Active?>
-

> <Pubchem_CID>
3785581

$$$$
