
  -ISIS-  08130814242D

 26 27  0  0  0  0  0  0  0  0999 V2000
   -1.4125    1.9000    0.0000 C   0  0  0  0  0  0  0  0  0  0  0  0
   -2.0333    2.9958    0.0000 C   0  0  3  0  0  0  0  0  0  0  0  0
   -2.0333    0.8000    0.0000 C   0  0  0  0  0  0  0  0  0  0  0  0
   -3.9458    1.9000    0.0000 C   0  0  0  0  0  0  0  0  0  0  0  0
   -3.3333    0.8000    0.0000 N   0  0  0  0  0  0  0  0  0  0  0  0
   -3.3333    2.9958    0.0000 N   0  0  0  0  0  0  0  0  0  0  0  0
   -1.4125    4.0792    0.0000 C   0  0  0  0  0  0  0  0  0  0  0  0
   -0.1625    1.9000    0.0000 C   0  0  0  0  0  0  0  0  0  0  0  0
    2.3792   -0.2875    0.0000 C   0  0  3  0  0  0  0  0  0  0  0  0
   -2.0333    5.1667    0.0000 C   0  0  0  0  0  0  0  0  0  0  0  0
   -3.2958    5.1667    0.0000 O   0  0  0  0  0  0  0  0  0  0  0  0
    0.5000    0.8000    0.0000 O   0  0  0  0  0  0  0  0  0  0  0  0
   -5.2333    1.9000    0.0000 O   0  0  0  0  0  0  0  0  0  0  0  0
    0.4792    2.9833    0.0000 O   0  0  0  0  0  0  0  0  0  0  0  0
    1.7542    0.8000    0.0000 C   0  0  0  0  0  0  0  0  0  0  0  0
    3.4875    0.3500    0.0000 F   0  0  0  0  0  0  0  0  0  0  0  0
    1.2875   -0.9292    0.0000 F   0  0  0  0  0  0  0  0  0  0  0  0
    3.0167   -1.3792    0.0000 F   0  0  0  0  0  0  0  0  0  0  0  0
   -1.3833   -0.3042    0.0000 C   0  0  0  0  0  0  0  0  0  0  0  0
   -0.1208    4.0792    0.0000 C   0  0  0  0  0  0  0  0  0  0  0  0
   -3.9000    6.2375    0.0000 C   0  0  3  0  0  0  0  0  0  0  0  0
   -1.4125    6.2542    0.0000 C   0  0  0  0  0  0  0  0  0  0  0  0
   -5.1708    6.2375    0.0000 C   0  0  0  0  0  0  0  0  0  0  0  0
   -3.2500    7.3042    0.0000 C   0  0  0  0  0  0  0  0  0  0  0  0
    0.5167    5.1667    0.0000 C   0  0  0  0  0  0  0  0  0  0  0  0
   -0.1208    6.2542    0.0000 C   0  0  0  0  0  0  0  0  0  0  0  0
  2  1  1  0  0  0  0
  3  1  2  0  0  0  0
  4  5  1  0  0  0  0
  5  3  1  0  0  0  0
  6  2  1  0  0  0  0
  7  2  1  0  0  0  0
  8  1  1  0  0  0  0
  9 15  1  0  0  0  0
 10  7  1  0  0  0  0
 11 10  1  0  0  0  0
 12  8  1  0  0  0  0
 13  4  2  0  0  0  0
 14  8  2  0  0  0  0
 15 12  1  0  0  0  0
 16  9  1  0  0  0  0
 17  9  1  0  0  0  0
 18  9  1  0  0  0  0
 19  3  1  0  0  0  0
 20  7  2  0  0  0  0
 21 11  1  0  0  0  0
 22 10  2  0  0  0  0
 23 21  1  0  0  0  0
 24 21  1  0  0  0  0
 25 20  1  0  0  0  0
 26 25  2  0  0  0  0
  4  6  1  0  0  0  0
 22 26  1  0  0  0  0
M  END
> <#>
751

> <PLATE>
LAT010

> <ROW>
G

> <COL>
5

> <COORD>
G05

> <LATID>
LAT010G05

> <Supplier>
Chembridge

> <Suplier_CAT#>
5602713

> <Name>
Novel

> <Sec_Name>
181_B06

> <Concentration_(mM)>
2.5

> <IC50_(µM)>
25

> <Yeast_Active?>
-

> <Pubchem_CID>
1110527

$$$$
