
  -ISIS-  08130814242D

 22 24  0  0  0  0  0  0  0  0999 V2000
    5.6917  -21.4667    0.0000 C   0  0  0  0  0  0  0  0  0  0  0  0
    6.0792  -21.9000    0.0000 N   0  0  0  0  0  0  0  0  0  0  0  0
    5.9875  -20.9542    0.0000 N   0  0  0  0  0  0  0  0  0  0  0  0
    6.6167  -21.6625    0.0000 C   0  0  0  0  0  0  0  0  0  0  0  0
    6.5625  -21.0792    0.0000 N   0  0  0  0  0  0  0  0  0  0  0  0
    8.6542  -21.6625    0.0000 C   0  0  0  0  0  0  0  0  0  0  0  0
    5.1042  -21.5292    0.0000 C   0  0  0  0  0  0  0  0  0  0  0  0
    8.6542  -21.0792    0.0000 C   0  0  0  0  0  0  0  0  0  0  0  0
    8.1500  -21.9542    0.0000 C   0  0  0  0  0  0  0  0  0  0  0  0
    9.1625  -20.7792    0.0000 C   0  0  0  0  0  0  0  0  0  0  0  0
    9.1667  -21.9542    0.0000 C   0  0  0  0  0  0  0  0  0  0  0  0
    7.1292  -21.9542    0.0000 S   0  0  0  0  0  0  0  0  0  0  0  0
    4.7167  -21.0917    0.0000 O   0  0  0  0  0  0  0  0  0  0  0  0
    4.8125  -22.0375    0.0000 C   0  0  0  0  0  0  0  0  0  0  0  0
    7.6375  -21.6625    0.0000 C   0  0  0  0  0  0  0  0  0  0  0  0
    4.1792  -21.3292    0.0000 C   0  0  0  0  0  0  0  0  0  0  0  0
    4.2417  -21.9167    0.0000 C   0  0  0  0  0  0  0  0  0  0  0  0
    8.1417  -22.5417    0.0000 O   0  0  0  0  0  0  0  0  0  0  0  0
    9.6750  -21.0792    0.0000 C   0  0  0  0  0  0  0  0  0  0  0  0
    8.1417  -20.7875    0.0000 O   0  0  0  0  0  0  0  0  0  0  0  0
    9.6750  -21.6667    0.0000 C   0  0  0  0  0  0  0  0  0  0  0  0
   10.1792  -20.7792    0.0000 O   0  0  0  0  0  0  0  0  0  0  0  0
  2  1  1  0  0  0  0
  3  1  2  0  0  0  0
  4  2  1  0  0  0  0
  5  3  1  0  0  0  0
  6  9  1  0  0  0  0
  7  1  1  0  0  0  0
  8  6  1  0  0  0  0
  9 15  1  0  0  0  0
 10  8  2  0  0  0  0
 11  6  2  0  0  0  0
 12  4  1  0  0  0  0
 13  7  1  0  0  0  0
 14  7  2  0  0  0  0
 15 12  1  0  0  0  0
 16 13  1  0  0  0  0
 17 14  1  0  0  0  0
 18  9  2  0  0  0  0
 19 21  2  0  0  0  0
 20  8  1  0  0  0  0
 21 11  1  0  0  0  0
 22 19  1  0  0  0  0
  4  5  2  0  0  0  0
 16 17  2  0  0  0  0
 10 19  1  0  0  0  0
M  END
> <#>
1266

> <PLATE>
LAT016

> <ROW>
B

> <COL>
10

> <COORD>
B10

> <LATID>
LAT016B10

> <Supplier>
Chembridge

> <Suplier_CAT#>
6617380

> <Name>
Novel

> <Concentration_(mM)>
2.5

> <IC50_(µM)>
inactive

> <Yeast_Active?>
-

> <Pubchem_CID>
NULL

$$$$
