
  -ISIS-  08130814242D

 22 24  0  0  0  0  0  0  0  0999 V2000
    3.4167    1.1333    0.0000 C   0  0  0  0  0  0  0  0  0  0  0  0
    3.3375    1.8750    0.0000 N   0  0  0  0  0  0  0  0  0  0  0  0
    2.7292    0.8250    0.0000 N   0  0  0  0  0  0  0  0  0  0  0  0
    2.6042    2.0333    0.0000 C   0  0  0  0  0  0  0  0  0  0  0  0
    2.2292    1.3833    0.0000 C   0  0  0  0  0  0  0  0  0  0  0  0
    2.2292    2.6833    0.0000 C   0  0  0  0  0  0  0  0  0  0  0  0
    1.4792    1.3833    0.0000 C   0  0  0  0  0  0  0  0  0  0  0  0
    1.4792    2.6833    0.0000 C   0  0  0  0  0  0  0  0  0  0  0  0
    1.1042    2.0333    0.0000 C   0  0  0  0  0  0  0  0  0  0  0  0
    4.0667    0.7583    0.0000 S   0  0  0  0  0  0  0  0  0  0  0  0
    5.3667    0.7583    0.0000 C   0  0  0  0  0  0  0  0  0  0  0  0
    6.0125    1.1333    0.0000 C   0  0  0  0  0  0  0  0  0  0  0  0
    4.7167    1.1333    0.0000 C   0  0  0  0  0  0  0  0  0  0  0  0
    5.3667    0.0083    0.0000 O   0  0  0  0  0  0  0  0  0  0  0  0
    6.6625    0.7583    0.0000 C   0  0  0  0  0  0  0  0  0  0  0  0
    6.0125    1.8833    0.0000 C   0  0  0  0  0  0  0  0  0  0  0  0
    7.3125    1.8833    0.0000 C   0  0  0  0  0  0  0  0  0  0  0  0
    6.6625    2.2583    0.0000 C   0  0  0  0  0  0  0  0  0  0  0  0
    7.3125    1.1333    0.0000 C   0  0  0  0  0  0  0  0  0  0  0  0
    7.9625    2.2583    0.0000 O   0  0  0  0  0  0  0  0  0  0  0  0
    1.1042    3.3333    0.0000 C   0  0  0  0  0  0  0  0  0  0  0  0
    0.3542    2.0333    0.0000 C   0  0  0  0  0  0  0  0  0  0  0  0
  2  1  2  0  0  0  0
  3  1  1  0  0  0  0
  4  2  1  0  0  0  0
  5  3  1  0  0  0  0
  6  4  2  0  0  0  0
  7  5  2  0  0  0  0
  8  6  1  0  0  0  0
  9  7  1  0  0  0  0
 10  1  1  0  0  0  0
 11 13  1  0  0  0  0
 12 11  1  0  0  0  0
 13 10  1  0  0  0  0
 14 11  2  0  0  0  0
 15 12  2  0  0  0  0
 16 12  1  0  0  0  0
 17 18  1  0  0  0  0
 18 16  2  0  0  0  0
 19 15  1  0  0  0  0
 20 17  1  0  0  0  0
 21  8  1  0  0  0  0
 22  9  1  0  0  0  0
  5  4  1  0  0  0  0
  9  8  2  0  0  0  0
 17 19  2  0  0  0  0
M  END
> <#>
1394

> <PLATE>
LAT018

> <ROW>
B

> <COL>
6

> <COORD>
B06

> <LATID>
LAT018B06

> <Supplier>
Chembridge

> <Suplier_CAT#>
7960319

> <Name>
Novel

> <Concentration_(mM)>
2.5

> <IC50_(µM)>
inactive

> <Yeast_Active?>
-

> <Pubchem_CID>
NULL

$$$$
