
  -ISIS-  08130814242D

 26 29  0  0  0  0  0  0  0  0999 V2000
   -0.5625    0.8833    0.0000 C   0  0  0  0  0  0  0  0  0  0  0  0
   -0.9625    1.4458    0.0000 N   0  0  0  0  0  0  0  0  0  0  0  0
   -0.9625    0.3208    0.0000 N   0  0  3  0  0  0  0  0  0  0  0  0
    0.1375    0.9000    0.0000 C   0  0  3  0  0  0  0  0  0  0  0  0
   -1.6000    0.5208    0.0000 C   0  0  0  0  0  0  0  0  0  0  0  0
   -1.6000    1.2208    0.0000 C   0  0  0  0  0  0  0  0  0  0  0  0
    0.1375    0.2000    0.0000 C   0  0  0  0  0  0  0  0  0  0  0  0
    0.8167    0.9000    0.0000 C   0  0  0  0  0  0  0  0  0  0  0  0
   -0.7208   -0.3542    0.0000 C   0  0  3  0  0  0  0  0  0  0  0  0
    0.1167    1.5833    0.0000 O   0  0  0  0  0  0  0  0  0  0  0  0
   -2.2000    0.1833    0.0000 C   0  0  0  0  0  0  0  0  0  0  0  0
   -2.2000    1.5625    0.0000 C   0  0  0  0  0  0  0  0  0  0  0  0
   -0.4625   -0.1375    0.0000 C   0  0  0  0  0  0  0  0  0  0  0  0
    1.1542    0.3000    0.0000 C   0  0  0  0  0  0  0  0  0  0  0  0
    1.1542    1.5000    0.0000 C   0  0  0  0  0  0  0  0  0  0  0  0
    0.7375   -0.1375    0.0000 C   0  0  0  0  0  0  0  0  0  0  0  0
   -1.3708   -1.1875    0.0000 C   0  0  0  0  0  0  0  0  0  0  0  0
   -1.8208   -0.5875    0.0000 C   0  0  0  0  0  0  0  0  0  0  0  0
   -2.8000    0.5208    0.0000 C   0  0  0  0  0  0  0  0  0  0  0  0
   -2.8000    1.2208    0.0000 C   0  0  0  0  0  0  0  0  0  0  0  0
    0.7542   -0.8167    0.0000 C   0  0  0  0  0  0  0  0  0  0  0  0
   -0.4625   -0.8167    0.0000 C   0  0  0  0  0  0  0  0  0  0  0  0
    1.8375    0.3000    0.0000 C   0  0  0  0  0  0  0  0  0  0  0  0
    1.8375    1.5208    0.0000 C   0  0  0  0  0  0  0  0  0  0  0  0
    2.1792    0.9000    0.0000 C   0  0  0  0  0  0  0  0  0  0  0  0
    0.1375   -1.1542    0.0000 C   0  0  0  0  0  0  0  0  0  0  0  0
  2  1  2  0  0  0  0
  3  1  1  0  0  0  0
  4  1  1  0  0  0  0
  5  3  1  0  0  0  0
  6  2  1  0  0  0  0
  7  4  1  0  0  0  0
  8  4  1  0  0  0  0
  9  3  1  0  0  0  0
 10  4  1  0  0  0  0
 11  5  1  0  0  0  0
 12  6  1  0  0  0  0
 13  7  1  0  0  0  0
 14  8  1  0  0  0  0
 15  8  2  0  0  0  0
 16  7  2  0  0  0  0
 17  9  1  0  0  0  0
 18  9  1  0  0  0  0
 19 11  2  0  0  0  0
 20 12  2  0  0  0  0
 21 16  1  0  0  0  0
 22 13  2  0  0  0  0
 23 14  2  0  0  0  0
 24 15  1  0  0  0  0
 25 24  2  0  0  0  0
 26 21  2  0  0  0  0
  5  6  2  0  0  0  0
 19 20  1  0  0  0  0
 23 25  1  0  0  0  0
 22 26  1  0  0  0  0
M  END
> <#>
1009

> <PLATE>
LAT013

> <ROW>
A

> <COL>
8

> <COORD>
A08

> <LATID>
LAT013A08

> <Supplier>
Chembridge

> <Suplier_CAT#>
5523573

> <Name>
Novel

> <Concentration_(mM)>
2.5

> <IC50_(µM)>
26

> <Yeast_Active?>
-

> <Pubchem_CID>
2849677

$$$$
