
  -ISIS-  08130814242D

 34 38  0  0  0  0  0  0  0  0999 V2000
   -2.2625   -0.2167    0.0000 N   0  0  3  0  0  0  0  0  0  0  0  0
    0.9792   -0.7167    0.0000 C   0  0  0  0  0  0  0  0  0  0  0  0
    1.3375   -0.0542    0.0000 C   0  0  0  0  0  0  0  0  0  0  0  0
   -1.0208   -0.5792    0.0000 C   0  0  0  0  0  0  0  0  0  0  0  0
    2.1792   -0.9375    0.0000 N   0  0  3  0  0  0  0  0  0  0  0  0
    2.0792   -0.2000    0.0000 N   0  0  3  0  0  0  0  0  0  0  0  0
   -1.5458   -0.0292    0.0000 C   0  0  0  0  0  0  0  0  0  0  0  0
    1.5000   -1.2542    0.0000 C   0  0  0  0  0  0  0  0  0  0  0  0
   -2.4625   -0.9375    0.0000 C   0  0  0  0  0  0  0  0  0  0  0  0
   -1.2208   -1.3000    0.0000 C   0  0  0  0  0  0  0  0  0  0  0  0
   -0.2625   -0.3792    0.0000 C   0  0  0  0  0  0  0  0  0  0  0  0
   -1.9458   -1.4792    0.0000 C   0  0  0  0  0  0  0  0  0  0  0  0
    0.2792   -0.9167    0.0000 N   0  0  0  0  0  0  0  0  0  0  0  0
   -2.8000    0.3458    0.0000 C   0  0  0  0  0  0  0  0  0  0  0  0
    1.0000    0.6458    0.0000 O   0  0  0  0  0  0  0  0  0  0  0  0
   -2.5833    1.0625    0.0000 C   0  0  0  0  0  0  0  0  0  0  0  0
    2.6792    0.2625    0.0000 C   0  0  0  0  0  0  0  0  0  0  0  0
   -1.3458    0.7000    0.0000 O   0  0  0  0  0  0  0  0  0  0  0  0
   -3.2208   -1.1375    0.0000 O   0  0  0  0  0  0  0  0  0  0  0  0
   -3.1208    1.6000    0.0000 O   0  0  0  0  0  0  0  0  0  0  0  0
   -1.9208    1.4000    0.0000 C   0  0  0  0  0  0  0  0  0  0  0  0
   -2.7625    2.2708    0.0000 C   0  0  0  0  0  0  0  0  0  0  0  0
   -2.0208    2.1458    0.0000 C   0  0  0  0  0  0  0  0  0  0  0  0
    2.8792   -1.2792    0.0000 C   0  0  0  0  0  0  0  0  0  0  0  0
    1.3792   -2.0167    0.0000 C   0  0  0  0  0  0  0  0  0  0  0  0
   -0.7000   -1.8375    0.0000 C   0  0  0  0  0  0  0  0  0  0  0  0
   -2.1458   -2.2000    0.0000 C   0  0  0  0  0  0  0  0  0  0  0  0
    2.5792    1.0000    0.0000 C   0  0  0  0  0  0  0  0  0  0  0  0
    3.3542   -0.0167    0.0000 C   0  0  0  0  0  0  0  0  0  0  0  0
   -1.6208   -2.7375    0.0000 C   0  0  0  0  0  0  0  0  0  0  0  0
   -0.9000   -2.5542    0.0000 C   0  0  0  0  0  0  0  0  0  0  0  0
    3.9542    0.4458    0.0000 C   0  0  0  0  0  0  0  0  0  0  0  0
    3.1792    1.4625    0.0000 C   0  0  0  0  0  0  0  0  0  0  0  0
    3.8542    1.1833    0.0000 C   0  0  0  0  0  0  0  0  0  0  0  0
  2 13  1  0  0  0  0
  3  2  1  0  0  0  0
  4  7  1  0  0  0  0
  5  8  1  0  0  0  0
  6  3  1  0  0  0  0
  7  1  1  0  0  0  0
  8  2  2  0  0  0  0
  9  1  1  0  0  0  0
 10 12  1  0  0  0  0
 11  4  2  0  0  0  0
 12  9  1  0  0  0  0
 13 11  1  0  0  0  0
 14  1  1  0  0  0  0
 15  3  2  0  0  0  0
 16 14  1  0  0  0  0
 17  6  1  0  0  0  0
 18  7  2  0  0  0  0
 19  9  2  0  0  0  0
 20 16  1  0  0  0  0
 21 16  2  0  0  0  0
 22 20  1  0  0  0  0
 23 21  1  0  0  0  0
 24  5  1  0  0  0  0
 25  8  1  0  0  0  0
 26 10  2  0  0  0  0
 27 12  2  0  0  0  0
 28 17  2  0  0  0  0
 29 17  1  0  0  0  0
 30 27  1  0  0  0  0
 31 30  2  0  0  0  0
 32 29  2  0  0  0  0
 33 28  1  0  0  0  0
 34 32  1  0  0  0  0
 10  4  1  0  0  0  0
 22 23  2  0  0  0  0
 31 26  1  0  0  0  0
  6  5  1  0  0  0  0
 34 33  2  0  0  0  0
M  END
> <#>
2032

> <PLATE>
LAT026

> <ROW>
H

> <COL>
5

> <COORD>
H05

> <LATID>
LAT026H05

> <Supplier>
Chembridge

> <Suplier_CAT#>
5757604

> <Sec_Name>
240_B05

> <Concentration_(mM)>
2.5

> <IC50_(µM)>
inactive

> <Yeast_Active?>
-

> <Pubchem_CID>
5336649

$$$$
