
  -ISIS-  08130814242D

 21 23  0  0  0  0  0  0  0  0999 V2000
    2.0542   -0.6292    0.0000 C   0  0  0  0  0  0  0  0  0  0  0  0
    3.0792   -2.3542    0.0000 C   0  0  0  0  0  0  0  0  0  0  0  0
    3.0792   -0.0292    0.0000 O   0  0  0  0  0  0  0  0  0  0  0  0
    4.1000   -0.6292    0.0000 C   0  0  0  0  0  0  0  0  0  0  0  0
    2.0542   -1.7792    0.0000 C   0  0  0  0  0  0  0  0  0  0  0  0
    4.1000   -1.7792    0.0000 C   0  0  0  0  0  0  0  0  0  0  0  0
    1.0500   -0.0292    0.0000 C   0  0  0  0  0  0  0  0  0  0  0  0
    1.0500   -2.3542    0.0000 C   0  0  0  0  0  0  0  0  0  0  0  0
    5.1167   -0.0792    0.0000 O   0  0  0  0  0  0  0  0  0  0  0  0
    0.0500   -0.6292    0.0000 C   0  0  0  0  0  0  0  0  0  0  0  0
   -0.9958   -0.0542    0.0000 O   0  0  0  0  0  0  0  0  0  0  0  0
    0.0500   -1.7792    0.0000 C   0  0  0  0  0  0  0  0  0  0  0  0
   -4.0833    2.8333    0.0000 C   0  0  0  0  0  0  0  0  0  0  0  0
   -2.0625    1.7125    0.0000 C   0  0  0  0  0  0  0  0  0  0  0  0
   -1.0208    1.1458    0.0000 C   0  0  0  0  0  0  0  0  0  0  0  0
   -5.1583    3.3833    0.0000 F   0  0  0  0  0  0  0  0  0  0  0  0
    3.0542   -3.5292    0.0000 C   0  0  0  0  0  0  0  0  0  0  0  0
   -4.0833    1.7000    0.0000 C   0  0  0  0  0  0  0  0  0  0  0  0
   -3.0958    3.4458    0.0000 C   0  0  0  0  0  0  0  0  0  0  0  0
   -3.0500    1.1125    0.0000 C   0  0  0  0  0  0  0  0  0  0  0  0
   -2.0500    2.8958    0.0000 C   0  0  0  0  0  0  0  0  0  0  0  0
  2  5  1  0  0  0  0
  3  1  1  0  0  0  0
  4  3  1  0  0  0  0
  5  1  2  0  0  0  0
  6  2  2  0  0  0  0
  7  1  1  0  0  0  0
  8  5  1  0  0  0  0
  9  4  2  0  0  0  0
 10  7  2  0  0  0  0
 11 10  1  0  0  0  0
 12 10  1  0  0  0  0
 13 19  2  0  0  0  0
 14 15  1  0  0  0  0
 15 11  1  0  0  0  0
 16 13  1  0  0  0  0
 17  2  1  0  0  0  0
 18 20  2  0  0  0  0
 19 21  1  0  0  0  0
 20 14  1  0  0  0  0
 21 14  2  0  0  0  0
 12  8  2  0  0  0  0
  6  4  1  0  0  0  0
 13 18  1  0  0  0  0
M  END
> <#>
1831

> <PLATE>
LAT023

> <ROW>
G

> <COL>
10

> <COORD>
G10

> <LATID>
LAT023G10

> <Supplier>
Chembridge

> <Suplier_CAT#>
5677176

> <Name>
Foxarin

> <Sec_Name>
214_B06

> <Concentration_(mM)>
2.5

> <IC50_(µM)>
ND

> <Yeast_Active?>
-

> <Pubchem_CID>
721093

> <Comment>
SS14

$$$$
