
  -ISIS-  08130814242D

  7  6  0  0  0  0  0  0  0  0999 V2000
    6.1687   -1.0425    0.0000 C   0  0  0  0  0  0  0  0  0  0  0  0
    6.7937   -2.1250    0.0000 C   0  0  0  0  0  0  0  0  0  0  0  0
    8.0437   -2.1250    0.0000 C   0  0  0  0  0  0  0  0  0  0  0  0
    8.6687   -3.2075    0.0000 C   0  0  0  0  0  0  0  0  0  0  0  0
    8.6687   -1.0425    0.0000 O   0  0  0  0  0  0  0  0  0  0  0  0
    6.1687   -3.2075    0.0000 N   0  0  0  0  0  0  0  0  0  0  0  0
    4.9187   -3.2075    0.0000 O   0  0  0  0  0  0  0  0  0  0  0  0
  1  2  1  0  0  0  0
  2  3  1  0  0  0  0
  3  4  1  0  0  0  0
  3  5  2  0  0  0  0
  6  7  1  0  0  0  0
  2  6  2  0  0  0  0
M  END
> <#>
300

> <PLATE>
LAT004

> <ROW>
D

> <COL>
9

> <COORD>
D09

> <LATID>
LAT004D09

> <Supplier>
Sigma

> <Suplier_CAT#>
B-0753

> <Name>
2,3-Butanedione Monoxime 

> <Concentration_(mM)>
2.5

> <IC50_(µM)>
inactive

> <Yeast_Active?>
-

> <Pubchem_CID>
6409633

$$$$
