
  -ISIS-  08130814242D

 13  9  0  0  0  0  0  0  0  0999 V2000
    6.6391   -3.4424    0.0000 La  0  1  0  0  0  0  0  0  0  0  0  0
    5.8663   -2.9962    0.0000 N   0  3  0  0  0  0  0  0  0  0  0  0
    5.0936   -2.5501    0.0000 O   0  5  0  0  0  0  0  0  0  0  0  0
    6.6391   -2.5501    0.0000 O   0  0  0  0  0  0  0  0  0  0  0  0
    5.8663   -3.8885    0.0000 O   0  5  0  0  0  0  0  0  0  0  0  0
    7.4119   -2.9962    0.0000 N   0  3  0  0  0  0  0  0  0  0  0  0
    8.1846   -2.5501    0.0000 O   0  5  0  0  0  0  0  0  0  0  0  0
    7.4119   -3.8885    0.0000 O   0  0  0  0  0  0  0  0  0  0  0  0
    6.6391   -2.5501    0.0000 O   0  5  0  0  0  0  0  0  0  0  0  0
    6.6391   -4.3347    0.0000 N   0  3  0  0  0  0  0  0  0  0  0  0
    6.6391   -5.2270    0.0000 O   0  5  0  0  0  0  0  0  0  0  0  0
    5.8663   -3.8885    0.0000 O   0  0  0  0  0  0  0  0  0  0  0  0
    7.4119   -3.8885    0.0000 O   0  5  0  0  0  0  0  0  0  0  0  0
  6  7  1  0  0  0  0
  6  8  2  0  0  0  0
  6  9  1  0  0  0  0
  2  3  1  0  0  0  0
  2  4  2  0  0  0  0
  2  5  1  0  0  0  0
 10 11  1  0  0  0  0
 10 12  2  0  0  0  0
 10 13  1  0  0  0  0
M  CHG  8   1   3   2   1   3  -1   5  -1   6   1   7  -1   9  -1  10   1
M  CHG  2  11  -1  13  -1
M  END
> <#>
520

> <PLATE>
LAT007

> <ROW>
H

> <COL>
6

> <COORD>
H06

> <LATID>
LAT007H06

> <Supplier>
Baker

> <Suplier_CAT#>
5-P354

> <Name>
Lanthanum Nitrate, 6-Hydrate

> <Concentration_(mM)>
2.5

> <IC50_(µM)>
inactive

> <Yeast_Active?>
-

> <Pubchem_CID>
25122

$$$$
