
  -ISIS-  08130814242D

 22 24  0  0  0  0  0  0  0  0999 V2000
   -1.8000    1.7958    0.0000 C   0  0  0  0  0  0  0  0  0  0  0  0
   -1.0458    2.2333    0.0000 C   0  0  0  0  0  0  0  0  0  0  0  0
   -2.5625    2.2333    0.0000 C   0  0  0  0  0  0  0  0  0  0  0  0
   -0.2833    1.8000    0.0000 C   0  0  0  0  0  0  0  0  0  0  0  0
    0.4792    2.2458    0.0000 C   0  0  0  0  0  0  0  0  0  0  0  0
    0.4792    3.1125    0.0000 C   0  0  0  0  0  0  0  0  0  0  0  0
   -3.3208    1.7958    0.0000 C   0  0  0  0  0  0  0  0  0  0  0  0
   -1.8000    0.9125    0.0000 C   0  0  0  0  0  0  0  0  0  0  0  0
   -1.0458    3.1083    0.0000 O   0  0  0  0  0  0  0  0  0  0  0  0
   -0.2708    3.5458    0.0000 O   0  0  0  0  0  0  0  0  0  0  0  0
   -3.3208    0.9125    0.0000 C   0  0  0  0  0  0  0  0  0  0  0  0
   -2.5625    0.4708    0.0000 C   0  0  0  0  0  0  0  0  0  0  0  0
   -2.5625    3.1083    0.0000 O   0  0  0  0  0  0  0  0  0  0  0  0
    1.2292    3.5458    0.0000 O   0  0  0  0  0  0  0  0  0  0  0  0
   -0.2833    0.9208    0.0000 C   0  0  0  0  0  0  0  0  0  0  0  0
    1.2375    1.8125    0.0000 C   0  0  0  0  0  0  0  0  0  0  0  0
   -4.0833    2.2333    0.0000 C   0  0  0  0  0  0  0  0  0  0  0  0
   -4.0833    0.4708    0.0000 C   0  0  0  0  0  0  0  0  0  0  0  0
    0.4875    0.4958    0.0000 C   0  0  0  0  0  0  0  0  0  0  0  0
    1.2500    0.9458    0.0000 C   0  0  0  0  0  0  0  0  0  0  0  0
   -4.8458    1.7958    0.0000 C   0  0  0  0  0  0  0  0  0  0  0  0
   -4.8458    0.9125    0.0000 C   0  0  0  0  0  0  0  0  0  0  0  0
  2  1  1  0  0  0  0
  3  1  2  0  0  0  0
  4  2  1  0  0  0  0
  5  4  1  0  0  0  0
  6  5  1  0  0  0  0
  7  3  1  0  0  0  0
  8  1  1  0  0  0  0
  9  2  2  0  0  0  0
 10  6  2  0  0  0  0
 11 12  1  0  0  0  0
 12  8  2  0  0  0  0
 13  3  1  0  0  0  0
 14  6  1  0  0  0  0
 15  4  2  0  0  0  0
 16  5  2  0  0  0  0
 17  7  1  0  0  0  0
 18 11  1  0  0  0  0
 19 15  1  0  0  0  0
 20 19  2  0  0  0  0
 21 17  2  0  0  0  0
 22 18  2  0  0  0  0
 11  7  2  0  0  0  0
 22 21  1  0  0  0  0
 16 20  1  0  0  0  0
M  END
> <#>
1889

> <PLATE>
LAT024

> <ROW>
A

> <COL>
8

> <COORD>
A08

> <LATID>
LAT024A08

> <Supplier>
Chembridge

> <Suplier_CAT#>
5475540

> <Name>
Natopin

> <Sec_Name>
137_G10

> <Concentration_(mM)>
2.5

> <IC50_(µM)>
34

> <Yeast_Active?>
-

> <Pubchem_CID>
256910

$$$$
