
  -ISIS-  08130814242D

 20 21  0  0  0  0  0  0  0  0999 V2000
    1.6917    0.0083    0.0000 C   0  0  0  0  0  0  0  0  0  0  0  0
    1.2292   -0.3625    0.0000 N   0  0  0  0  0  0  0  0  0  0  0  0
    1.6000    0.5958    0.0000 N   0  0  0  0  0  0  0  0  0  0  0  0
    3.7042    0.3083    0.0000 C   0  0  0  0  0  0  0  0  0  0  0  0
    4.2500    0.0958    0.0000 C   0  0  0  0  0  0  0  0  0  0  0  0
    4.7042    0.4583    0.0000 C   0  0  0  0  0  0  0  0  0  0  0  0
    3.2417   -0.0542    0.0000 C   0  0  0  0  0  0  0  0  0  0  0  0
    2.2375   -0.2125    0.0000 S   0  0  0  0  0  0  0  0  0  0  0  0
    1.0542    0.8000    0.0000 C   0  0  0  0  0  0  0  0  0  0  0  0
    0.6792   -0.1417    0.0000 C   0  0  0  0  0  0  0  0  0  0  0  0
    4.6167    1.0375    0.0000 C   0  0  0  0  0  0  0  0  0  0  0  0
    0.6000    0.4375    0.0000 C   0  0  0  0  0  0  0  0  0  0  0  0
    2.6917    0.1583    0.0000 C   0  0  0  0  0  0  0  0  0  0  0  0
    3.6125    0.8833    0.0000 C   0  0  0  0  0  0  0  0  0  0  0  0
    3.3292   -0.6417    0.0000 O   0  0  0  0  0  0  0  0  0  0  0  0
    4.0667    1.2500    0.0000 C   0  0  0  0  0  0  0  0  0  0  0  0
    5.2542    0.2458    0.0000 O   0  0  0  0  0  0  0  0  0  0  0  0
    5.0792    1.4083    0.0000 O   0  0  0  0  0  0  0  0  0  0  0  0
    0.2250   -0.5125    0.0000 C   0  0  0  0  0  0  0  0  0  0  0  0
    0.9667    1.3833    0.0000 C   0  0  0  0  0  0  0  0  0  0  0  0
  2  1  2  0  0  0  0
  3  1  1  0  0  0  0
  4  7  1  0  0  0  0
  5  4  2  0  0  0  0
  6  5  1  0  0  0  0
  7 13  1  0  0  0  0
  8  1  1  0  0  0  0
  9  3  2  0  0  0  0
 10  2  1  0  0  0  0
 11 16  1  0  0  0  0
 12  9  1  0  0  0  0
 13  8  1  0  0  0  0
 14  4  1  0  0  0  0
 15  7  2  0  0  0  0
 16 14  2  0  0  0  0
 17  6  1  0  0  0  0
 18 11  1  0  0  0  0
 19 10  1  0  0  0  0
 20  9  1  0  0  0  0
 12 10  2  0  0  0  0
  6 11  2  0  0  0  0
M  END
> <#>
1303

> <PLATE>
LAT017

> <ROW>
G

> <COL>
4

> <COORD>
G04

> <LATID>
LAT017G04

> <Supplier>
Chembridge

> <Suplier_CAT#>
6622859

> <Name>
Novel

> <Concentration_(mM)>
2.5

> <IC50_(µM)>
inactive

> <Yeast_Active?>
-

> <Pubchem_CID>
715454

$$$$
