
  -ISIS-  08130814242D

 18 20  0  0  0  0  0  0  0  0999 V2000
   -0.5208    0.3125    0.0000 N   0  0  3  0  0  0  0  0  0  0  0  0
   -0.6208   -0.1667    0.0000 C   0  0  0  0  0  0  0  0  0  0  0  0
   -0.9458    0.5500    0.0000 C   0  0  0  0  0  0  0  0  0  0  0  0
   -1.3833    0.3125    0.0000 C   0  0  0  0  0  0  0  0  0  0  0  0
   -1.2833   -0.1667    0.0000 C   0  0  0  0  0  0  0  0  0  0  0  0
   -0.1000    0.5500    0.0000 C   0  0  3  0  0  0  0  0  0  0  0  0
   -0.9458    1.0500    0.0000 C   0  0  0  0  0  0  0  0  0  0  0  0
   -0.5208    1.3125    0.0000 C   0  0  0  0  0  0  0  0  0  0  0  0
   -0.1000    1.0500    0.0000 C   0  0  0  0  0  0  0  0  0  0  0  0
   -1.8000    0.5500    0.0000 C   0  0  0  0  0  0  0  0  0  0  0  0
   -0.2458   -0.4875    0.0000 O   0  0  0  0  0  0  0  0  0  0  0  0
   -1.3833    1.3125    0.0000 C   0  0  0  0  0  0  0  0  0  0  0  0
   -1.6625   -0.4875    0.0000 O   0  0  0  0  0  0  0  0  0  0  0  0
   -1.8000    1.0500    0.0000 C   0  0  0  0  0  0  0  0  0  0  0  0
    0.2792    0.2333    0.0000 C   0  0  0  0  0  0  0  0  0  0  0  0
    0.3792    0.6958    0.0000 C   0  0  0  0  0  0  0  0  0  0  0  0
   -0.5000    1.8125    0.0000 C   0  0  0  0  0  0  0  0  0  0  0  0
   -2.3125    1.1958    0.0000 O   0  0  0  0  0  0  0  0  0  0  0  0
  2  1  1  0  0  0  0
  3  1  1  0  0  0  0
  4  3  1  0  0  0  0
  5  2  1  0  0  0  0
  6  1  1  0  0  0  0
  7  3  2  0  0  0  0
  8  9  2  0  0  0  0
  9  6  1  0  0  0  0
 10  4  2  0  0  0  0
 11  2  2  0  0  0  0
 12  7  1  0  0  0  0
 13  5  2  0  0  0  0
 14 12  2  0  0  0  0
 15  6  1  0  0  0  0
 16  6  1  0  0  0  0
 17  8  1  0  0  0  0
 18 14  1  0  0  0  0
  4  5  1  0  0  0  0
  7  8  1  0  0  0  0
 14 10  1  0  0  0  0
M  END
> <#>
1381

> <PLATE>
LAT018

> <ROW>
E

> <COL>
4

> <COORD>
E04

> <LATID>
LAT018E04

> <Supplier>
Chembridge

> <Suplier_CAT#>
7662510

> <Name>
Novel

> <Concentration_(mM)>
2.5

> <IC50_(µM)>
>100

> <Yeast_Active?>
-

> <Pubchem_CID>
NULL

$$$$
