
  -ISIS-  08130814242D

 20 22  0  0  0  0  0  0  0  0999 V2000
    1.9167    3.2708    0.0000 C   0  0  0  0  0  0  0  0  0  0  0  0
    2.5667    2.8958    0.0000 C   0  0  0  0  0  0  0  0  0  0  0  0
    3.2167    3.2708    0.0000 C   0  0  0  0  0  0  0  0  0  0  0  0
    1.9167    4.0167    0.0000 N   0  0  0  0  0  0  0  0  0  0  0  0
    3.2167    4.0167    0.0000 N   0  0  0  0  0  0  0  0  0  0  0  0
    1.3625    2.7708    0.0000 S   0  0  0  0  0  0  0  0  0  0  0  0
    2.4125    2.1625    0.0000 C   0  0  0  0  0  0  0  0  0  0  0  0
    2.5667    4.3917    0.0000 C   0  0  0  0  0  0  0  0  0  0  0  0
    1.6667    2.0833    0.0000 C   0  0  0  0  0  0  0  0  0  0  0  0
    3.8667    2.8958    0.0000 N   0  0  0  0  0  0  0  0  0  0  0  0
    5.1667    2.1458    0.0000 N   0  0  0  0  0  0  0  0  0  0  0  0
    4.5167    3.2708    0.0000 C   0  0  0  0  0  0  0  0  0  0  0  0
    5.1667    2.8958    0.0000 C   0  0  0  0  0  0  0  0  0  0  0  0
    1.2917    1.4333    0.0000 C   0  0  0  0  0  0  0  0  0  0  0  0
    2.5667    5.1417    0.0000 C   0  0  0  0  0  0  0  0  0  0  0  0
    5.8167    1.7708    0.0000 C   0  0  0  0  0  0  0  0  0  0  0  0
    5.8167    3.2708    0.0000 C   0  0  0  0  0  0  0  0  0  0  0  0
    1.6667    0.7833    0.0000 C   0  0  0  0  0  0  0  0  0  0  0  0
    6.4667    2.1458    0.0000 C   0  0  0  0  0  0  0  0  0  0  0  0
    6.4667    2.8958    0.0000 C   0  0  0  0  0  0  0  0  0  0  0  0
  2  1  1  0  0  0  0
  3  2  2  0  0  0  0
  4  1  2  0  0  0  0
  5  8  2  0  0  0  0
  6  1  1  0  0  0  0
  7  2  1  0  0  0  0
  8  4  1  0  0  0  0
  9  6  1  0  0  0  0
 10  3  1  0  0  0  0
 11 13  2  0  0  0  0
 12 10  1  0  0  0  0
 13 12  1  0  0  0  0
 14  9  1  0  0  0  0
 15  8  1  0  0  0  0
 16 11  1  0  0  0  0
 17 13  1  0  0  0  0
 18 14  1  0  0  0  0
 19 20  1  0  0  0  0
 20 17  2  0  0  0  0
  7  9  2  0  0  0  0
  3  5  1  0  0  0  0
 19 16  2  0  0  0  0
M  END
> <#>
1441

> <PLATE>
LAT019

> <ROW>
A

> <COL>
2

> <COORD>
A02

> <LATID>
LAT019A02

> <Supplier>
Chembridge

> <Suplier_CAT#>
9017871

> <Name>
Novel

> <Concentration_(mM)>
2.5

> <IC50_(µM)>
24

> <Yeast_Active?>
-

> <Pubchem_CID>
6458164

$$$$
