
  -ISIS-  08130814242D

 18 19  0  0  0  0  0  0  0  0999 V2000
    1.4000    0.0875    0.0000 C   0  0  0  0  0  0  0  0  0  0  0  0
    0.6792    0.5083    0.0000 N   0  0  0  0  0  0  0  0  0  0  0  0
    2.1167    0.5083    0.0000 C   0  0  0  0  0  0  0  0  0  0  0  0
   -0.0333    0.0875    0.0000 N   0  0  0  0  0  0  0  0  0  0  0  0
    1.4000   -0.7417    0.0000 C   0  0  0  0  0  0  0  0  0  0  0  0
   -0.0333   -0.7417    0.0000 C   0  0  0  0  0  0  0  0  0  0  0  0
    0.6792   -1.1500    0.0000 C   0  0  0  0  0  0  0  0  0  0  0  0
    3.5542    0.5208    0.0000 N   0  0  0  0  0  0  0  0  0  0  0  0
    2.8375    0.1000    0.0000 N   0  0  0  0  0  0  0  0  0  0  0  0
    2.1042    1.3375    0.0000 O   0  0  0  0  0  0  0  0  0  0  0  0
   -0.7458   -1.1542    0.0000 O   0  0  0  0  0  0  0  0  0  0  0  0
    4.9917   -1.9792    0.0000 N   0  0  0  0  0  0  0  0  0  0  0  0
    4.2750    0.1083    0.0000 C   0  0  0  0  0  0  0  0  0  0  0  0
    4.2792   -0.7292    0.0000 C   0  0  0  0  0  0  0  0  0  0  0  0
    4.9917   -1.1375    0.0000 C   0  0  0  0  0  0  0  0  0  0  0  0
    4.2750   -2.3917    0.0000 C   0  0  0  0  0  0  0  0  0  0  0  0
    3.5542   -1.1417    0.0000 C   0  0  0  0  0  0  0  0  0  0  0  0
    3.5542   -1.9667    0.0000 C   0  0  0  0  0  0  0  0  0  0  0  0
  2  1  2  0  0  0  0
  3  1  1  0  0  0  0
  4  2  1  0  0  0  0
  5  1  1  0  0  0  0
  6  7  1  0  0  0  0
  7  5  2  0  0  0  0
  8  9  1  0  0  0  0
  9  3  1  0  0  0  0
 10  3  2  0  0  0  0
 11  6  2  0  0  0  0
 12 15  2  0  0  0  0
 13  8  2  0  0  0  0
 14 13  1  0  0  0  0
 15 14  1  0  0  0  0
 16 18  2  0  0  0  0
 17 14  2  0  0  0  0
 18 17  1  0  0  0  0
  6  4  1  0  0  0  0
 16 12  1  0  0  0  0
M  END
> <#>
1697

> <PLATE>
LAT022

> <ROW>
A

> <COL>
4

> <COORD>
A04

> <LATID>
LAT022A04

> <Supplier>
Chembridge

> <Suplier_CAT#>
5769161

> <Name>
Novel

> <Concentration_(mM)>
2.5

> <IC50_(µM)>
inactive

> <Yeast_Active?>
-

> <Pubchem_CID>
739593

$$$$
