
  -ISIS-  08130814242D

 21 23  0  0  0  0  0  0  0  0999 V2000
    1.5292   -3.1125    0.0000 N   0  0  3  0  0  0  0  0  0  0  0  0
    0.8500   -2.7167    0.0000 C   0  0  3  0  0  0  0  0  0  0  0  0
    2.2417   -2.7000    0.0000 C   0  0  0  0  0  0  0  0  0  0  0  0
    0.8542   -1.8917    0.0000 C   0  0  0  0  0  0  0  0  0  0  0  0
    0.1375   -0.6625    0.0000 N   0  0  0  0  0  0  0  0  0  0  0  0
    2.9625   -3.1125    0.0000 C   0  0  0  0  0  0  0  0  0  0  0  0
    1.5292   -3.9042    0.0000 C   0  0  0  0  0  0  0  0  0  0  0  0
    0.1417   -1.4875    0.0000 C   0  0  0  0  0  0  0  0  0  0  0  0
    4.3000   -3.8667    0.0000 C   0  0  0  0  0  0  0  0  0  0  0  0
    2.9625   -3.8667    0.0000 C   0  0  0  0  0  0  0  0  0  0  0  0
    3.6292   -2.7167    0.0000 C   0  0  0  0  0  0  0  0  0  0  0  0
    3.6292   -4.2792    0.0000 C   0  0  0  0  0  0  0  0  0  0  0  0
    4.3000   -3.1125    0.0000 C   0  0  0  0  0  0  0  0  0  0  0  0
    0.1667   -3.1125    0.0000 C   0  0  0  0  0  0  0  0  0  0  0  0
    1.5667   -1.4792    0.0000 C   0  0  0  0  0  0  0  0  0  0  0  0
    0.8542   -0.2417    0.0000 C   0  0  0  0  0  0  0  0  0  0  0  0
    4.9667   -4.2792    0.0000 C   0  0  0  0  0  0  0  0  0  0  0  0
    0.8500   -4.3042    0.0000 C   0  0  0  0  0  0  0  0  0  0  0  0
    1.5667   -0.6542    0.0000 C   0  0  0  0  0  0  0  0  0  0  0  0
    5.6417   -3.8917    0.0000 C   0  0  0  0  0  0  0  0  0  0  0  0
    0.1667   -3.9042    0.0000 C   0  0  0  0  0  0  0  0  0  0  0  0
  2  1  1  0  0  0  0
  3  1  1  0  0  0  0
  4  2  1  0  0  0  0
  5  8  2  0  0  0  0
  6  3  1  0  0  0  0
  7  1  1  0  0  0  0
  8  4  1  0  0  0  0
  9 13  1  0  0  0  0
 10  6  2  0  0  0  0
 11  6  1  0  0  0  0
 12 10  1  0  0  0  0
 13 11  2  0  0  0  0
 14  2  1  0  0  0  0
 15  4  2  0  0  0  0
 16 19  2  0  0  0  0
 17  9  1  0  0  0  0
 18  7  1  0  0  0  0
 19 15  1  0  0  0  0
 20 17  1  0  0  0  0
 21 18  1  0  0  0  0
 14 21  1  0  0  0  0
  9 12  2  0  0  0  0
  5 16  1  0  0  0  0
M  END
> <#>
1931

> <PLATE>
LAT025

> <ROW>
C

> <COL>
3

> <COORD>
C03

> <LATID>
LAT025C03

> <Supplier>
Chembridge

> <Suplier_CAT#>
5645195

> <Name>
Novel

> <Sec_Name>
196_B03

> <Concentration_(mM)>
2.5

> <IC50_(µM)>
25

> <Yeast_Active?>
-

> <Pubchem_CID>
872937

$$$$
