
  -ISIS-  08130814242D

 11 11  0  0  0  0  0  0  0  0999 V2000
    4.8730   -4.1708    0.0000 C   0  0  0  0  0  0  0  0  0  0  0  0
    3.6230   -4.1708    0.0000 C   0  0  0  0  0  0  0  0  0  0  0  0
    2.9980   -5.2534    0.0000 C   0  0  0  0  0  0  0  0  0  0  0  0
    1.7480   -5.2534    0.0000 C   0  0  0  0  0  0  0  0  0  0  0  0
    1.1230   -4.1708    0.0000 C   0  0  1  0  0  0  0  0  0  0  0  0
   -0.1270   -4.1708    0.0000 C   0  0  0  0  0  0  0  0  0  0  0  0
   -0.7520   -5.2534    0.0000 C   0  0  0  0  0  0  0  0  0  0  0  0
   -0.7520   -3.0883    0.0000 C   0  0  0  0  0  0  0  0  0  0  0  0
    1.7480   -3.0883    0.0000 C   0  0  0  0  0  0  0  0  0  0  0  0
    2.9980   -3.0883    0.0000 C   0  0  0  0  0  0  0  0  0  0  0  0
    5.4980   -5.2534    0.0000 O   0  0  0  0  0  0  0  0  0  0  0  0
  1  2  1  0  0  0  0
  2  3  2  0  0  0  0
  3  4  1  0  0  0  0
  4  5  1  0  0  0  0
  5  6  1  1  0  0  0
  6  7  1  0  0  0  0
  6  8  2  0  0  0  0
  5  9  1  0  0  0  0
  9 10  1  0  0  0  0
  2 10  1  0  0  0  0
  1 11  1  0  0  0  0
M  END
> <#>
329

> <PLATE>
LAT005

> <ROW>
A

> <COL>
3

> <COORD>
A03

> <LATID>
LAT005A03

> <Supplier>
Aldrich

> <Suplier_CAT#>
21,839-1

> <Name>
(S)-(-)-Perillyl Alcohol

> <Concentration_(mM)>
2.5

> <IC50_(µM)>
inactive

> <Yeast_Active?>
-

> <Pubchem_CID>
10819

$$$$
