
  -ISIS-  08130814242D

 20 22  0  0  0  0  0  0  0  0999 V2000
   -2.2000    0.8125    0.0000 N   0  0  3  0  0  0  0  0  0  0  0  0
   -0.8458    0.8500    0.0000 S   0  0  3  0  0  0  0  0  0  0  0  0
   -3.0125    1.8958    0.0000 C   0  0  0  0  0  0  0  0  0  0  0  0
   -2.9708   -0.2792    0.0000 C   0  0  0  0  0  0  0  0  0  0  0  0
   -4.2458    1.5000    0.0000 N   0  0  0  0  0  0  0  0  0  0  0  0
    0.5167    0.8708    0.0000 C   0  0  0  0  0  0  0  0  0  0  0  0
   -4.2833    0.1500    0.0000 C   0  0  0  0  0  0  0  0  0  0  0  0
   -0.8208   -0.5042    0.0000 O   0  0  0  0  0  0  0  0  0  0  0  0
   -0.8833    2.2083    0.0000 O   0  0  0  0  0  0  0  0  0  0  0  0
    1.1375    2.0333    0.0000 C   0  0  0  0  0  0  0  0  0  0  0  0
    1.1792   -0.2792    0.0000 C   0  0  0  0  0  0  0  0  0  0  0  0
    3.1542    0.8708    0.0000 C   0  0  0  0  0  0  0  0  0  0  0  0
    2.5000   -0.2792    0.0000 C   0  0  0  0  0  0  0  0  0  0  0  0
    2.4542    2.0333    0.0000 C   0  0  0  0  0  0  0  0  0  0  0  0
   -2.7333   -1.5500    0.0000 C   0  0  0  0  0  0  0  0  0  0  0  0
    4.5375    0.8958    0.0000 O   0  0  0  0  0  0  0  0  0  0  0  0
   -5.2708   -0.7167    0.0000 C   0  0  0  0  0  0  0  0  0  0  0  0
    5.2375   -0.2667    0.0000 C   0  0  0  0  0  0  0  0  0  0  0  0
   -3.7125   -2.4792    0.0000 C   0  0  0  0  0  0  0  0  0  0  0  0
   -5.0208   -2.0375    0.0000 C   0  0  0  0  0  0  0  0  0  0  0  0
  2  1  1  0  0  0  0
  3  1  1  0  0  0  0
  4  1  1  0  0  0  0
  5  3  2  0  0  0  0
  6  2  1  0  0  0  0
  7  4  1  0  0  0  0
  8  2  2  0  0  0  0
  9  2  2  0  0  0  0
 10  6  2  0  0  0  0
 11  6  1  0  0  0  0
 12 13  1  0  0  0  0
 13 11  2  0  0  0  0
 14 10  1  0  0  0  0
 15  4  2  0  0  0  0
 16 12  1  0  0  0  0
 17  7  2  0  0  0  0
 18 16  1  0  0  0  0
 19 15  1  0  0  0  0
 20 19  2  0  0  0  0
  7  5  1  0  0  0  0
 20 17  1  0  0  0  0
 14 12  2  0  0  0  0
M  END
> <#>
1997

> <PLATE>
LAT025

> <ROW>
E

> <COL>
11

> <COORD>
E11

> <LATID>
LAT025E11

> <Supplier>
Chembridge

> <Suplier_CAT#>
5550999

> <Sec_Name>
164_E11

> <Concentration_(mM)>
2.5

> <IC50_(µM)>
50

> <Yeast_Active?>
-

> <Pubchem_CID>
746466

$$$$
