
  -ISIS-  08130814242D

 24 26  0  0  0  0  0  0  0  0999 V2000
   -0.4458   -0.2292    0.0000 C   0  0  0  0  0  0  0  0  0  0  0  0
    3.6292    0.1833    0.0000 C   0  0  0  0  0  0  0  0  0  0  0  0
    1.1792   -0.2500    0.0000 N   0  0  0  0  0  0  0  0  0  0  0  0
    2.8375   -0.2792    0.0000 C   0  0  0  0  0  0  0  0  0  0  0  0
    3.6375    1.1208    0.0000 N   0  0  0  0  0  0  0  0  0  0  0  0
    0.4000    0.2208    0.0000 N   0  0  0  0  0  0  0  0  0  0  0  0
   -0.4458   -1.1167    0.0000 O   0  0  0  0  0  0  0  0  0  0  0  0
    2.0500    0.1833    0.0000 C   0  0  0  0  0  0  0  0  0  0  0  0
   -1.2208    0.1833    0.0000 C   0  0  0  0  0  0  0  0  0  0  0  0
    4.3792   -0.2792    0.0000 C   0  0  0  0  0  0  0  0  0  0  0  0
   -2.0458   -0.2292    0.0000 O   0  0  0  0  0  0  0  0  0  0  0  0
   -2.8000    0.2458    0.0000 C   0  0  0  0  0  0  0  0  0  0  0  0
   -4.3833    1.1208    0.0000 C   0  0  0  0  0  0  0  0  0  0  0  0
   -5.1625    1.5500    0.0000 F   0  0  0  0  0  0  0  0  0  0  0  0
   -2.8000    1.1208    0.0000 C   0  0  0  0  0  0  0  0  0  0  0  0
   -3.6333   -0.2292    0.0000 C   0  0  0  0  0  0  0  0  0  0  0  0
   -3.6125    1.5625    0.0000 C   0  0  0  0  0  0  0  0  0  0  0  0
   -4.3833    0.2458    0.0000 C   0  0  0  0  0  0  0  0  0  0  0  0
    2.8375   -1.2375    0.0000 C   0  0  0  0  0  0  0  0  0  0  0  0
    3.5792   -1.7000    0.0000 C   0  0  0  0  0  0  0  0  0  0  0  0
    4.4542    1.5500    0.0000 C   0  0  0  0  0  0  0  0  0  0  0  0
    4.3792   -1.2375    0.0000 C   0  0  0  0  0  0  0  0  0  0  0  0
    5.2375    0.1708    0.0000 C   0  0  0  0  0  0  0  0  0  0  0  0
    5.2375    1.0708    0.0000 C   0  0  0  0  0  0  0  0  0  0  0  0
  2  4  1  0  0  0  0
  3  6  1  0  0  0  0
  4  8  1  0  0  0  0
  5  2  1  0  0  0  0
  6  1  1  0  0  0  0
  7  1  2  0  0  0  0
  8  3  2  0  0  0  0
  9  1  1  0  0  0  0
 10  2  2  0  0  0  0
 11  9  1  0  0  0  0
 12 11  1  0  0  0  0
 13 18  1  0  0  0  0
 14 13  1  0  0  0  0
 15 12  2  0  0  0  0
 16 12  1  0  0  0  0
 17 15  1  0  0  0  0
 18 16  2  0  0  0  0
 19  4  2  0  0  0  0
 20 19  1  0  0  0  0
 21  5  2  0  0  0  0
 22 20  2  0  0  0  0
 23 10  1  0  0  0  0
 24 23  2  0  0  0  0
 13 17  2  0  0  0  0
 22 10  1  0  0  0  0
 24 21  1  0  0  0  0
M  END
> <#>
937

> <PLATE>
LAT012

> <ROW>
A

> <COL>
9

> <COORD>
A09

> <LATID>
LAT012A09

> <Supplier>
Chembridge

> <Suplier_CAT#>
5768760

> <Name>
Novel

> <Sec_Name>
243_B03

> <Concentration_(mM)>
2.5

> <IC50_(µM)>
18

> <Yeast_Active?>
-

> <Pubchem_CID>
869807

$$$$
