
  -ISIS-  08130814242D

 18 20  0  0  0  0  0  0  0  0999 V2000
    2.8863    1.2119    0.0000 C   0  0  0  0  0  0  0  0  0  0  0  0
    3.9650    0.5803    0.0000 C   0  0  0  0  0  0  0  0  0  0  0  0
    3.9573   -0.6697    0.0000 C   0  0  0  0  0  0  0  0  0  0  0  0
    2.8709   -1.2880    0.0000 C   0  0  0  0  0  0  0  0  0  0  0  0
    1.7923   -0.6564    0.0000 C   0  0  0  0  0  0  0  0  0  0  0  0
    0.7059   -1.2747    0.0000 C   0  0  0  0  0  0  0  0  0  0  0  0
    0.6982   -2.5247    0.0000 O   0  0  0  0  0  0  0  0  0  0  0  0
   -0.3728   -0.6431    0.0000 C   0  0  0  0  0  0  0  0  0  0  0  0
   -1.4591   -1.2615    0.0000 C   0  0  0  0  0  0  0  0  0  0  0  0
   -2.5378   -0.6298    0.0000 C   0  0  0  0  0  0  0  0  0  0  0  0
   -2.5301    0.6202    0.0000 C   0  0  0  0  0  0  0  0  0  0  0  0
   -1.4438    1.2385    0.0000 C   0  0  0  0  0  0  0  0  0  0  0  0
   -0.3651    0.6069    0.0000 C   0  0  0  0  0  0  0  0  0  0  0  0
    0.7213    1.2252    0.0000 C   0  0  0  0  0  0  0  0  0  0  0  0
    0.7289    2.4752    0.0000 O   0  0  0  0  0  0  0  0  0  0  0  0
    1.7999    0.5936    0.0000 C   0  0  0  0  0  0  0  0  0  0  0  0
   -1.4361    2.4885    0.0000 O   0  0  0  0  0  0  0  0  0  0  0  0
    2.8939    2.4619    0.0000 O   0  0  0  0  0  0  0  0  0  0  0  0
  1  2  1  0  0  0  0
  2  3  2  0  0  0  0
  3  4  1  0  0  0  0
  4  5  2  0  0  0  0
  5  6  1  0  0  0  0
  6  7  2  0  0  0  0
  6  8  1  0  0  0  0
  8  9  1  0  0  0  0
  9 10  2  0  0  0  0
 10 11  1  0  0  0  0
 11 12  2  0  0  0  0
 12 13  1  0  0  0  0
  8 13  2  0  0  0  0
 13 14  1  0  0  0  0
 14 15  2  0  0  0  0
 14 16  1  0  0  0  0
  5 16  1  0  0  0  0
  1 16  2  0  0  0  0
 12 17  1  0  0  0  0
  1 18  1  0  0  0  0
M  END
> <#>
345

> <PLATE>
LAT005

> <ROW>
A

> <COL>
5

> <COORD>
A05

> <LATID>
LAT005A05

> <Supplier>
Aldrich

> <Suplier_CAT#>
D108103

> <Name>
1,8-Dihydroxyanthraquinone

> <Concentration_(mM)>
2.5

> <IC50_(µM)>
>100

> <Yeast_Active?>
-

> <Pubchem_CID>
2950

$$$$
