
  -ISIS-  08130814242D

 20 21  0  0  0  0  0  0  0  0999 V2000
   -1.2625   -1.5000    0.0000 C   0  0  0  0  0  0  0  0  0  0  0  0
    0.1792   -1.4875    0.0000 N   0  0  0  0  0  0  0  0  0  0  0  0
   -0.5208   -1.9000    0.0000 N   0  0  0  0  0  0  0  0  0  0  0  0
   -1.2625   -0.6875    0.0000 O   0  0  0  0  0  0  0  0  0  0  0  0
    3.0167   -1.4667    0.0000 N   0  0  0  0  0  0  0  0  0  0  0  0
    0.8875   -1.9000    0.0000 C   0  0  0  0  0  0  0  0  0  0  0  0
    1.6000   -1.4667    0.0000 C   0  0  0  0  0  0  0  0  0  0  0  0
   -1.9708   -1.9042    0.0000 C   0  0  0  0  0  0  0  0  0  0  0  0
   -2.6833   -1.5000    0.0000 O   0  0  0  0  0  0  0  0  0  0  0  0
   -3.4000   -1.0875    0.0000 C   0  0  0  0  0  0  0  0  0  0  0  0
   -4.8333   -0.2792    0.0000 C   0  0  0  0  0  0  0  0  0  0  0  0
   -5.5625    0.1125    0.0000 Br  0  0  0  0  0  0  0  0  0  0  0  0
   -3.4125   -0.2792    0.0000 C   0  0  0  0  0  0  0  0  0  0  0  0
   -4.1208   -1.5042    0.0000 C   0  0  0  0  0  0  0  0  0  0  0  0
   -4.8333   -1.0792    0.0000 C   0  0  0  0  0  0  0  0  0  0  0  0
   -4.1125    0.1208    0.0000 C   0  0  0  0  0  0  0  0  0  0  0  0
    2.3167   -1.8792    0.0000 C   0  0  0  0  0  0  0  0  0  0  0  0
    3.0167   -0.6500    0.0000 C   0  0  0  0  0  0  0  0  0  0  0  0
    1.6000   -0.6542    0.0000 C   0  0  0  0  0  0  0  0  0  0  0  0
    2.3000   -0.2500    0.0000 C   0  0  0  0  0  0  0  0  0  0  0  0
  2  3  1  0  0  0  0
  3  1  1  0  0  0  0
  4  1  2  0  0  0  0
  5 17  2  0  0  0  0
  6  2  2  0  0  0  0
  7  6  1  0  0  0  0
  8  1  1  0  0  0  0
  9  8  1  0  0  0  0
 10  9  1  0  0  0  0
 11 15  2  0  0  0  0
 12 11  1  0  0  0  0
 13 10  1  0  0  0  0
 14 10  2  0  0  0  0
 15 14  1  0  0  0  0
 16 13  2  0  0  0  0
 17  7  1  0  0  0  0
 18 20  2  0  0  0  0
 19  7  2  0  0  0  0
 20 19  1  0  0  0  0
 11 16  1  0  0  0  0
 18  5  1  0  0  0  0
M  END
> <#>
736

> <PLATE>
LAT010

> <ROW>
H

> <COL>
3

> <COORD>
H03

> <LATID>
LAT010H03

> <Supplier>
Chembridge

> <Suplier_CAT#>
5572259

> <Name>
Novel

> <Sec_Name>
175_D09

> <Concentration_(mM)>
2.5

> <IC50_(µM)>
0.83

> <Yeast_Active?>
-

> <Pubchem_CID>
2251178

$$$$
