
  -ISIS-  08130814242D

 28 29  0  0  0  0  0  0  0  0999 V2000
   -2.1458   -1.7042    0.0000 C   0  0  0  0  0  0  0  0  0  0  0  0
   -0.6000   -1.7292    0.0000 C   0  0  0  0  0  0  0  0  0  0  0  0
   -1.3625   -1.2667    0.0000 C   0  0  0  0  0  0  0  0  0  0  0  0
   -0.6000   -2.5875    0.0000 C   0  0  0  0  0  0  0  0  0  0  0  0
   -1.3625   -3.0500    0.0000 N   0  0  0  0  0  0  0  0  0  0  0  0
   -2.1458   -2.6042    0.0000 C   0  0  0  0  0  0  0  0  0  0  0  0
   -2.9208   -1.2667    0.0000 C   0  0  0  0  0  0  0  0  0  0  0  0
    0.2167   -1.2875    0.0000 C   0  0  0  0  0  0  0  0  0  0  0  0
    1.0167   -0.8667    0.0000 N   0  0  0  0  0  0  0  0  0  0  0  0
    0.2167   -3.0292    0.0000 S   0  0  0  0  0  0  0  0  0  0  0  0
    2.5500   -2.5167    0.0000 C   0  0  0  0  0  0  0  0  0  0  0  0
    3.3542   -2.9375    0.0000 C   0  0  0  0  0  0  0  0  0  0  0  0
    4.1042   -2.4667    0.0000 C   0  0  0  0  0  0  0  0  0  0  0  0
    1.7792   -2.9667    0.0000 C   0  0  0  0  0  0  0  0  0  0  0  0
   -1.3625   -0.3875    0.0000 C   0  0  0  0  0  0  0  0  0  0  0  0
    4.0792   -1.5667    0.0000 C   0  0  0  0  0  0  0  0  0  0  0  0
    0.9792   -2.5500    0.0000 C   0  0  0  0  0  0  0  0  0  0  0  0
   -3.6833   -1.7042    0.0000 O   0  0  0  0  0  0  0  0  0  0  0  0
    2.5167   -1.6292    0.0000 C   0  0  0  0  0  0  0  0  0  0  0  0
    1.8000   -3.8500    0.0000 O   0  0  0  0  0  0  0  0  0  0  0  0
    3.2875   -1.1500    0.0000 C   0  0  0  0  0  0  0  0  0  0  0  0
   -2.9208   -0.3875    0.0000 N   0  0  0  0  0  0  0  0  0  0  0  0
    4.8875   -2.9000    0.0000 O   0  0  0  0  0  0  0  0  0  0  0  0
    4.8375   -1.0875    0.0000 O   0  0  0  0  0  0  0  0  0  0  0  0
   -2.9208   -3.0667    0.0000 C   0  0  0  0  0  0  0  0  0  0  0  0
   -0.7000    0.2333    0.0000 C   0  0  3  0  0  0  0  0  0  0  0  0
   -1.0625    1.0333    0.0000 C   0  0  0  0  0  0  0  0  0  0  0  0
    0.1667    0.0833    0.0000 C   0  0  0  0  0  0  0  0  0  0  0  0
  2  3  1  0  0  0  0
  3  1  2  0  0  0  0
  4  5  1  0  0  0  0
  5  6  2  0  0  0  0
  6  1  1  0  0  0  0
  7  1  1  0  0  0  0
  8  2  1  0  0  0  0
  9  8  3  0  0  0  0
 10  4  1  0  0  0  0
 11 14  1  0  0  0  0
 12 11  2  0  0  0  0
 13 12  1  0  0  0  0
 14 17  1  0  0  0  0
 15  3  1  0  0  0  0
 16 21  1  0  0  0  0
 17 10  1  0  0  0  0
 18  7  2  0  0  0  0
 19 11  1  0  0  0  0
 20 14  2  0  0  0  0
 21 19  2  0  0  0  0
 22  7  1  0  0  0  0
 23 13  1  0  0  0  0
 24 16  1  0  0  0  0
 25  6  1  0  0  0  0
 26 15  1  0  0  0  0
 27 26  1  0  0  0  0
 28 26  1  0  0  0  0
  4  2  2  0  0  0  0
 16 13  2  0  0  0  0
M  END
> <#>
1223

> <PLATE>
LAT016

> <ROW>
G

> <COL>
4

> <COORD>
G04

> <LATID>
LAT016G04

> <Supplier>
Chembridge

> <Suplier_CAT#>
6038907

> <Name>
Novel

> <Concentration_(mM)>
2.5

> <IC50_(µM)>
inactive

> <Yeast_Active?>
-

> <Pubchem_CID>
2264803

$$$$
