
  -ISIS-  08130814242D

 30 33  0  0  0  0  0  0  0  0999 V2000
    5.3917   -3.1750    0.0000 C   0  0  3  0  0  0  0  0  0  0  0  0
    5.2250   -4.3750    0.0000 N   0  0  3  0  0  0  0  0  0  0  0  0
    5.7500   -3.8375    0.0000 C   0  0  0  0  0  0  0  0  0  0  0  0
    4.6542   -3.3042    0.0000 C   0  0  0  0  0  0  0  0  0  0  0  0
    4.5542   -4.0417    0.0000 C   0  0  0  0  0  0  0  0  0  0  0  0
    6.2417   -2.6042    0.0000 C   0  0  0  0  0  0  0  0  0  0  0  0
    6.9625   -2.9792    0.0000 C   0  0  0  0  0  0  0  0  0  0  0  0
    7.5917   -2.5750    0.0000 C   0  0  0  0  0  0  0  0  0  0  0  0
    5.3542   -5.1125    0.0000 C   0  0  0  0  0  0  0  0  0  0  0  0
    3.8542   -4.3167    0.0000 C   0  0  0  0  0  0  0  0  0  0  0  0
    4.0667   -2.8375    0.0000 C   0  0  0  0  0  0  0  0  0  0  0  0
    6.4917   -3.9417    0.0000 O   0  0  0  0  0  0  0  0  0  0  0  0
    8.2542   -2.9167    0.0000 C   0  0  0  0  0  0  0  0  0  0  0  0
    6.9917   -3.6042    0.0000 O   0  0  0  0  0  0  0  0  0  0  0  0
    5.1542   -2.3167    0.0000 O   0  0  0  0  0  0  0  0  0  0  0  0
    3.3750   -3.1167    0.0000 C   0  0  0  0  0  0  0  0  0  0  0  0
    4.7792   -5.5917    0.0000 C   0  0  0  0  0  0  0  0  0  0  0  0
    3.2667   -3.8625    0.0000 C   0  0  0  0  0  0  0  0  0  0  0  0
    2.7792   -2.6500    0.0000 Cl  0  0  0  0  0  0  0  0  0  0  0  0
    8.2875   -3.6667    0.0000 O   0  0  0  0  0  0  0  0  0  0  0  0
    4.0667   -5.3375    0.0000 C   0  0  0  0  0  0  0  0  0  0  0  0
    7.5625   -1.8250    0.0000 C   0  0  0  0  0  0  0  0  0  0  0  0
    8.8917   -2.5167    0.0000 C   0  0  0  0  0  0  0  0  0  0  0  0
    3.9417   -4.6000    0.0000 C   0  0  0  0  0  0  0  0  0  0  0  0
    3.5000   -5.8167    0.0000 C   0  0  0  0  0  0  0  0  0  0  0  0
    8.1917   -1.4167    0.0000 C   0  0  0  0  0  0  0  0  0  0  0  0
    8.8542   -1.7667    0.0000 C   0  0  0  0  0  0  0  0  0  0  0  0
    2.7917   -5.5625    0.0000 C   0  0  0  0  0  0  0  0  0  0  0  0
    3.2375   -4.3417    0.0000 C   0  0  0  0  0  0  0  0  0  0  0  0
    2.6625   -4.8250    0.0000 C   0  0  0  0  0  0  0  0  0  0  0  0
  2  3  1  0  0  0  0
  3  1  1  0  0  0  0
  4  1  1  0  0  0  0
  5  4  2  0  0  0  0
  6  1  1  0  0  0  0
  7  6  1  0  0  0  0
  8  7  1  0  0  0  0
  9  2  1  0  0  0  0
 10  5  1  0  0  0  0
 11  4  1  0  0  0  0
 12  3  2  0  0  0  0
 13  8  1  0  0  0  0
 14  7  2  0  0  0  0
 15  1  1  0  0  0  0
 16 11  2  0  0  0  0
 17  9  1  0  0  0  0
 18 16  1  0  0  0  0
 19 16  1  0  0  0  0
 20 13  1  0  0  0  0
 21 17  1  0  0  0  0
 22  8  2  0  0  0  0
 23 13  2  0  0  0  0
 24 21  1  0  0  0  0
 25 21  2  0  0  0  0
 26 22  1  0  0  0  0
 27 26  2  0  0  0  0
 28 25  1  0  0  0  0
 29 24  2  0  0  0  0
 30 28  2  0  0  0  0
  2  5  1  0  0  0  0
 10 18  2  0  0  0  0
 27 23  1  0  0  0  0
 29 30  1  0  0  0  0
M  END
> <#>
1345

> <PLATE>
LAT017

> <ROW>
A

> <COL>
10

> <COORD>
A10

> <LATID>
LAT017A10

> <Supplier>
Chembridge

> <Suplier_CAT#>
7403632

> <Name>
Novel

> <Concentration_(mM)>
2.5

> <IC50_(µM)>
>100

> <Yeast_Active?>
-

> <Pubchem_CID>
2056716

$$$$
