
  -ISIS-  08130814242D

 23 25  0  0  0  0  0  0  0  0999 V2000
    4.5542   -1.1875    0.0000 C   0  0  0  0  0  0  0  0  0  0  0  0
    4.0542   -1.7500    0.0000 O   0  0  0  0  0  0  0  0  0  0  0  0
    0.7792   -1.4375    0.0000 C   0  0  0  0  0  0  0  0  0  0  0  0
    4.1875   -0.5375    0.0000 C   0  0  0  0  0  0  0  0  0  0  0  0
    3.3792   -1.4375    0.0000 C   0  0  0  0  0  0  0  0  0  0  0  0
    2.0792   -1.4375    0.0000 N   0  0  0  0  0  0  0  0  0  0  0  0
    3.4500   -0.7000    0.0000 C   0  0  0  0  0  0  0  0  0  0  0  0
    5.3042   -1.2667    0.0000 C   0  0  0  0  0  0  0  0  0  0  0  0
    0.1292   -1.8167    0.0000 C   0  0  0  0  0  0  0  0  0  0  0  0
    2.7292   -1.8167    0.0000 C   0  0  0  0  0  0  0  0  0  0  0  0
    1.4292   -1.8167    0.0000 N   0  0  0  0  0  0  0  0  0  0  0  0
    0.1292   -2.5667    0.0000 N   0  0  0  0  0  0  0  0  0  0  0  0
    0.7792   -0.6875    0.0000 O   0  0  0  0  0  0  0  0  0  0  0  0
    5.6042   -1.9542    0.0000 C   0  0  0  0  0  0  0  0  0  0  0  0
    5.7500   -0.6667    0.0000 C   0  0  0  0  0  0  0  0  0  0  0  0
    6.8000   -1.4292    0.0000 C   0  0  0  0  0  0  0  0  0  0  0  0
    6.5000   -0.7375    0.0000 C   0  0  0  0  0  0  0  0  0  0  0  0
    6.3542   -2.0375    0.0000 C   0  0  0  0  0  0  0  0  0  0  0  0
    7.5500   -1.5042    0.0000 Br  0  0  0  0  0  0  0  0  0  0  0  0
   -0.5208   -2.9500    0.0000 C   0  0  0  0  0  0  0  0  0  0  0  0
   -0.5208   -1.4375    0.0000 C   0  0  0  0  0  0  0  0  0  0  0  0
   -1.1708   -2.5667    0.0000 C   0  0  0  0  0  0  0  0  0  0  0  0
   -1.1708   -1.8167    0.0000 C   0  0  0  0  0  0  0  0  0  0  0  0
  2  1  1  0  0  0  0
  3 11  1  0  0  0  0
  4  1  2  0  0  0  0
  5  2  1  0  0  0  0
  6 10  2  0  0  0  0
  7  4  1  0  0  0  0
  8  1  1  0  0  0  0
  9  3  1  0  0  0  0
 10  5  1  0  0  0  0
 11  6  1  0  0  0  0
 12  9  2  0  0  0  0
 13  3  2  0  0  0  0
 14  8  1  0  0  0  0
 15  8  2  0  0  0  0
 16 17  2  0  0  0  0
 17 15  1  0  0  0  0
 18 14  2  0  0  0  0
 19 16  1  0  0  0  0
 20 12  1  0  0  0  0
 21  9  1  0  0  0  0
 22 23  1  0  0  0  0
 23 21  2  0  0  0  0
  5  7  2  0  0  0  0
 16 18  1  0  0  0  0
 22 20  2  0  0  0  0
M  END
> <#>
724

> <PLATE>
LAT010

> <ROW>
D

> <COL>
2

> <COORD>
D02

> <LATID>
LAT010D02

> <Supplier>
Chembridge

> <Suplier_CAT#>
5565145

> <Name>
Novel

> <Sec_Name>
171_F10

> <Concentration_(mM)>
2.5

> <IC50_(µM)>
>100

> <Yeast_Active?>
-

> <Pubchem_CID>
1369275

$$$$
