
  -ISIS-  08130814242D

 22 24  0  0  0  0  0  0  0  0999 V2000
    2.4417    1.8458    0.0000 C   0  0  0  0  0  0  0  0  0  0  0  0
   -1.1125    0.1458    0.0000 N   0  3  0  0  0  0  0  0  0  0  0  0
    3.1875    2.2708    0.0000 N   0  0  3  0  0  0  0  0  0  0  0  0
    2.6292    1.0000    0.0000 N   0  0  0  0  0  0  0  0  0  0  0  0
    1.6500    2.1833    0.0000 S   0  0  0  0  0  0  0  0  0  0  0  0
   -0.4333    0.6458    0.0000 C   0  0  0  0  0  0  0  0  0  0  0  0
    3.4667    0.9208    0.0000 C   0  0  0  0  0  0  0  0  0  0  0  0
   -1.8708    0.4958    0.0000 O   0  5  0  0  0  0  0  0  0  0  0  0
    3.8292    1.6833    0.0000 C   0  0  0  0  0  0  0  0  0  0  0  0
    3.1875    3.1208    0.0000 C   0  0  0  0  0  0  0  0  0  0  0  0
   -1.0125   -0.7000    0.0000 O   0  0  0  0  0  0  0  0  0  0  0  0
    0.3667    0.3000    0.0000 C   0  0  0  0  0  0  0  0  0  0  0  0
   -0.5333    1.5000    0.0000 C   0  0  0  0  0  0  0  0  0  0  0  0
    0.9500    1.6625    0.0000 C   0  0  0  0  0  0  0  0  0  0  0  0
    2.4417    3.5458    0.0000 C   0  0  0  0  0  0  0  0  0  0  0  0
    1.0500    0.8000    0.0000 C   0  0  0  0  0  0  0  0  0  0  0  0
    0.1667    2.0208    0.0000 C   0  0  0  0  0  0  0  0  0  0  0  0
    1.7042    3.1208    0.0000 C   0  0  0  0  0  0  0  0  0  0  0  0
    2.4292    4.4000    0.0000 C   0  0  0  0  0  0  0  0  0  0  0  0
    0.9500    3.5458    0.0000 C   0  0  0  0  0  0  0  0  0  0  0  0
    1.6875    4.8375    0.0000 C   0  0  0  0  0  0  0  0  0  0  0  0
    0.9500    4.3792    0.0000 C   0  0  0  0  0  0  0  0  0  0  0  0
  2  6  1  0  0  0  0
  3  1  1  0  0  0  0
  4  1  2  0  0  0  0
  5  1  1  0  0  0  0
  6 13  2  0  0  0  0
  7  4  1  0  0  0  0
  8  2  1  0  0  0  0
  9  3  1  0  0  0  0
 10  3  1  0  0  0  0
 11  2  2  0  0  0  0
 12 16  2  0  0  0  0
 13 17  1  0  0  0  0
 14  5  1  0  0  0  0
 15 10  1  0  0  0  0
 16 14  1  0  0  0  0
 17 14  2  0  0  0  0
 18 15  1  0  0  0  0
 19 15  2  0  0  0  0
 20 18  2  0  0  0  0
 21 19  1  0  0  0  0
 22 21  2  0  0  0  0
  7  9  2  0  0  0  0
 12  6  1  0  0  0  0
 20 22  1  0  0  0  0
M  CHG  2   2   1   8  -1
M  END
> <#>
1777

> <PLATE>
LAT023

> <ROW>
A

> <COL>
4

> <COORD>
A04

> <LATID>
LAT023A04

> <Supplier>
Chembridge

> <Suplier_CAT#>
5539363

> <Name>
Novel

> <Sec_Name>
156_A09

> <Concentration_(mM)>
2.5

> <IC50_(µM)>
98

> <Yeast_Active?>
-

> <Pubchem_CID>
561240

$$$$
