
  -ISIS-  08130814242D

 23 25  0  0  0  0  0  0  0  0999 V2000
   -2.0833    0.0500    0.0000 C   0  0  0  0  0  0  0  0  0  0  0  0
   -2.6208   -0.2667    0.0000 C   0  0  0  0  0  0  0  0  0  0  0  0
   -1.5000   -0.1875    0.0000 O   0  0  0  0  0  0  0  0  0  0  0  0
   -3.1625    0.0500    0.0000 C   0  0  0  0  0  0  0  0  0  0  0  0
   -2.0458    0.6958    0.0000 C   0  0  0  0  0  0  0  0  0  0  0  0
   -0.1458    0.8125    0.0000 N   0  0  0  0  0  0  0  0  0  0  0  0
   -1.1000    0.3125    0.0000 C   0  0  0  0  0  0  0  0  0  0  0  0
   -1.4458    0.8500    0.0000 C   0  0  0  0  0  0  0  0  0  0  0  0
   -3.7000   -0.2667    0.0000 C   0  0  0  0  0  0  0  0  0  0  0  0
   -2.6208   -0.8875    0.0000 C   0  0  0  0  0  0  0  0  0  0  0  0
    0.5000    0.7958    0.0000 C   0  0  0  0  0  0  0  0  0  0  0  0
    0.8000    0.2333    0.0000 C   0  0  0  0  0  0  0  0  0  0  0  0
   -0.4625    0.2708    0.0000 C   0  0  0  0  0  0  0  0  0  0  0  0
    1.4167    0.2125    0.0000 C   0  0  0  0  0  0  0  0  0  0  0  0
    0.8167    1.3125    0.0000 C   0  0  0  0  0  0  0  0  0  0  0  0
   -3.7000   -0.8875    0.0000 C   0  0  0  0  0  0  0  0  0  0  0  0
   -3.1625    0.6958    0.0000 Cl  0  0  0  0  0  0  0  0  0  0  0  0
   -3.1625   -1.2042    0.0000 C   0  0  0  0  0  0  0  0  0  0  0  0
    1.7375    0.7500    0.0000 C   0  0  0  0  0  0  0  0  0  0  0  0
    0.4792   -0.3042    0.0000 O   0  0  0  0  0  0  0  0  0  0  0  0
    1.4375    1.2958    0.0000 C   0  0  0  0  0  0  0  0  0  0  0  0
   -4.2458   -1.2042    0.0000 Cl  0  0  0  0  0  0  0  0  0  0  0  0
    2.3792    0.7333    0.0000 C   0  0  0  0  0  0  0  0  0  0  0  0
  2  1  1  0  0  0  0
  3  1  1  0  0  0  0
  4  2  1  0  0  0  0
  5  1  2  0  0  0  0
  6 13  2  0  0  0  0
  7  3  1  0  0  0  0
  8  5  1  0  0  0  0
  9  4  2  0  0  0  0
 10  2  2  0  0  0  0
 11  6  1  0  0  0  0
 12 11  1  0  0  0  0
 13  7  1  0  0  0  0
 14 12  2  0  0  0  0
 15 11  2  0  0  0  0
 16 18  2  0  0  0  0
 17  4  1  0  0  0  0
 18 10  1  0  0  0  0
 19 21  2  0  0  0  0
 20 12  1  0  0  0  0
 21 15  1  0  0  0  0
 22 16  1  0  0  0  0
 23 19  1  0  0  0  0
  8  7  2  0  0  0  0
 16  9  1  0  0  0  0
 19 14  1  0  0  0  0
M  END
> <#>
592

> <PLATE>
LAT008

> <ROW>
H

> <COL>
5

> <COORD>
H05

> <LATID>
LAT008H05

> <Supplier>
Chembridge

> <Suplier_CAT#>
5471023

> <Name>
Novel

> <Sec_Name>
136_G03

> <Concentration_(mM)>
2.5

> <IC50_(µM)>
67

> <Yeast_Active?>
-

> <Pubchem_CID>
757907

$$$$
