
  -ISIS-  08130814242D

 18 19  0  0  0  0  0  0  0  0999 V2000
    1.1375   -0.2000    0.0000 C   0  0  0  0  0  0  0  0  0  0  0  0
    1.1375    0.9208    0.0000 C   0  0  0  0  0  0  0  0  0  0  0  0
    2.1167   -0.7542    0.0000 C   0  0  0  0  0  0  0  0  0  0  0  0
    2.1000    1.4833    0.0000 C   0  0  0  0  0  0  0  0  0  0  0  0
    3.1000   -0.2000    0.0000 C   0  0  0  0  0  0  0  0  0  0  0  0
   -0.8208   -0.2000    0.0000 N   0  0  0  0  0  0  0  0  0  0  0  0
    3.1000    0.9208    0.0000 C   0  0  0  0  0  0  0  0  0  0  0  0
    0.1792   -0.7542    0.0000 N   0  0  0  0  0  0  0  0  0  0  0  0
   -4.7083   -0.2000    0.0000 N   0  0  0  0  0  0  0  0  0  0  0  0
   -1.7833   -0.7542    0.0000 C   0  0  0  0  0  0  0  0  0  0  0  0
   -2.7833   -0.2000    0.0000 C   0  0  0  0  0  0  0  0  0  0  0  0
    0.1542    1.5000    0.0000 Cl  0  0  0  0  0  0  0  0  0  0  0  0
    2.1292   -1.8792    0.0000 Cl  0  0  0  0  0  0  0  0  0  0  0  0
    4.1000    1.4833    0.0000 Cl  0  0  0  0  0  0  0  0  0  0  0  0
   -3.7458   -0.7542    0.0000 C   0  0  0  0  0  0  0  0  0  0  0  0
   -4.7083    0.9458    0.0000 C   0  0  0  0  0  0  0  0  0  0  0  0
   -2.7833    0.9458    0.0000 C   0  0  0  0  0  0  0  0  0  0  0  0
   -3.7458    1.5000    0.0000 C   0  0  0  0  0  0  0  0  0  0  0  0
  2  1  1  0  0  0  0
  3  1  2  0  0  0  0
  4  2  2  0  0  0  0
  5  3  1  0  0  0  0
  6  8  1  0  0  0  0
  7  5  2  0  0  0  0
  8  1  1  0  0  0  0
  9 15  2  0  0  0  0
 10  6  2  0  0  0  0
 11 10  1  0  0  0  0
 12  2  1  0  0  0  0
 13  3  1  0  0  0  0
 14  7  1  0  0  0  0
 15 11  1  0  0  0  0
 16 18  2  0  0  0  0
 17 11  2  0  0  0  0
 18 17  1  0  0  0  0
  7  4  1  0  0  0  0
 16  9  1  0  0  0  0
M  END
> <#>
1672

> <PLATE>
LAT021

> <ROW>
H

> <COL>
10

> <COORD>
H10

> <LATID>
LAT021H10

> <Supplier>
Chembridge

> <Suplier_CAT#>
5632484

> <Name>
Novel

> <Concentration_(mM)>
2.5

> <IC50_(µM)>
72

> <Yeast_Active?>
-

> <Pubchem_CID>
2856967

$$$$
