
  -ISIS-  08130814242D

 18 19  0  0  0  0  0  0  0  0999 V2000
    0.5292    0.5125    0.0000 C   0  0  0  0  0  0  0  0  0  0  0  0
   -1.0708    0.5333    0.0000 C   0  0  0  0  0  0  0  0  0  0  0  0
   -0.2708    0.9708    0.0000 C   0  0  0  0  0  0  0  0  0  0  0  0
   -0.2708   -0.8875    0.0000 C   0  0  0  0  0  0  0  0  0  0  0  0
   -1.0708   -0.4292    0.0000 C   0  0  0  0  0  0  0  0  0  0  0  0
    0.5292   -0.4292    0.0000 C   0  0  0  0  0  0  0  0  0  0  0  0
    1.3292    0.9958    0.0000 C   0  0  0  0  0  0  0  0  0  0  0  0
   -1.8708    1.0333    0.0000 C   0  0  0  0  0  0  0  0  0  0  0  0
    1.3292    1.9125    0.0000 O   0  0  0  0  0  0  0  0  0  0  0  0
   -2.7125    0.5958    0.0000 O   0  0  0  0  0  0  0  0  0  0  0  0
   -0.2708   -1.8292    0.0000 C   0  0  0  0  0  0  0  0  0  0  0  0
   -0.2958    1.8958    0.0000 O   0  0  0  0  0  0  0  0  0  0  0  0
    0.5375   -2.3000    0.0000 C   0  0  0  0  0  0  0  0  0  0  0  0
    1.3542   -1.8292    0.0000 C   0  0  0  0  0  0  0  0  0  0  0  0
    0.5375   -3.2375    0.0000 C   0  0  0  0  0  0  0  0  0  0  0  0
    1.3500   -3.7167    0.0000 C   0  0  0  0  0  0  0  0  0  0  0  0
    2.1792   -2.3000    0.0000 C   0  0  0  0  0  0  0  0  0  0  0  0
    2.1792   -3.2500    0.0000 C   0  0  0  0  0  0  0  0  0  0  0  0
  2  3  2  0  0  0  0
  3  1  1  0  0  0  0
  4  6  1  0  0  0  0
  5  4  2  0  0  0  0
  6  1  2  0  0  0  0
  7  1  1  0  0  0  0
  8  2  1  0  0  0  0
  9  7  2  0  0  0  0
 10  8  2  0  0  0  0
 11  4  1  0  0  0  0
 12  3  1  0  0  0  0
 13 11  1  0  0  0  0
 14 13  2  0  0  0  0
 15 13  1  0  0  0  0
 16 15  2  0  0  0  0
 17 14  1  0  0  0  0
 18 16  1  0  0  0  0
  2  5  1  0  0  0  0
 18 17  2  0  0  0  0
M  END
> <#>
1079

> <PLATE>
LAT014

> <ROW>
G

> <COL>
6

> <COORD>
G06

> <LATID>
LAT014G06

> <Supplier>
Chembridge

> <Suplier_CAT#>
5789266

> <Name>
Novel

> <Sec_Name>
250_B06

> <Concentration_(mM)>
2.5

> <IC50_(µM)>
6.8

> <Yeast_Active?>
+

> <Pubchem_CID>
790767

$$$$
