
  -ISIS-  08130814242D

 28 29  0  0  0  0  0  0  0  0999 V2000
    0.8792   -4.0875    0.0000 N   0  3  0  0  0  0  0  0  0  0  0  0
    1.4667   -4.4250    0.0000 O   0  5  0  0  0  0  0  0  0  0  0  0
    0.8792   -3.4042    0.0000 O   0  0  0  0  0  0  0  0  0  0  0  0
    0.2875   -4.4167    0.0000 O   0  0  0  0  0  0  0  0  0  0  0  0
    4.2250   -6.0792    0.0000 C   0  0  0  0  0  0  0  0  0  0  0  0
    4.7375   -6.7292    0.0000 C   0  0  0  0  0  0  0  0  0  0  0  0
    4.3125   -3.8917    0.0000 N   0  0  3  0  0  0  0  0  0  0  0  0
    5.0500   -2.7792    0.0000 N   0  0  0  0  0  0  0  0  0  0  0  0
    4.5250   -5.3167    0.0000 C   0  0  3  0  0  0  0  0  0  0  0  0
    5.0875   -3.5917    0.0000 C   0  0  0  0  0  0  0  0  0  0  0  0
    4.4375   -7.5042    0.0000 C   0  0  0  0  0  0  0  0  0  0  0  0
    3.4000   -6.2042    0.0000 C   0  0  0  0  0  0  0  0  0  0  0  0
    4.0125   -4.6667    0.0000 C   0  0  0  0  0  0  0  0  0  0  0  0
    5.3500   -5.1917    0.0000 O   0  0  0  0  0  0  0  0  0  0  0  0
    4.2500   -2.5542    0.0000 C   0  0  0  0  0  0  0  0  0  0  0  0
    3.7875   -3.2417    0.0000 C   0  0  0  0  0  0  0  0  0  0  0  0
    3.6125   -7.6292    0.0000 C   0  0  0  0  0  0  0  0  0  0  0  0
    5.5625   -6.6042    0.0000 Cl  0  0  0  0  0  0  0  0  0  0  0  0
    3.1000   -6.9792    0.0000 C   0  0  0  0  0  0  0  0  0  0  0  0
    5.8625   -5.8292    0.0000 C   0  0  0  0  0  0  0  0  0  0  0  0
    8.3250   -5.4542    0.0000 C   0  0  0  0  0  0  0  0  0  0  0  0
    6.6792   -5.7042    0.0000 C   0  0  0  0  0  0  0  0  0  0  0  0
    3.3125   -8.4042    0.0000 Cl  0  0  0  0  0  0  0  0  0  0  0  0
    9.1542   -5.3292    0.0000 Cl  0  0  0  0  0  0  0  0  0  0  0  0
    8.0167   -6.2167    0.0000 C   0  0  0  0  0  0  0  0  0  0  0  0
    7.8042   -4.8042    0.0000 C   0  0  0  0  0  0  0  0  0  0  0  0
    6.9792   -4.9292    0.0000 C   0  0  0  0  0  0  0  0  0  0  0  0
    7.1917   -6.3417    0.0000 C   0  0  0  0  0  0  0  0  0  0  0  0
  3  1  2  0  0  0  0
  4  1  1  0  0  0  0
  2  1  1  0  0  0  0
  6  5  1  0  0  0  0
  7 13  1  0  0  0  0
  8 10  2  0  0  0  0
  9  5  1  0  0  0  0
 10  7  1  0  0  0  0
 11  6  2  0  0  0  0
 12  5  2  0  0  0  0
 13  9  1  0  0  0  0
 14  9  1  0  0  0  0
 15 16  2  0  0  0  0
 16  7  1  0  0  0  0
 17 19  2  0  0  0  0
 18  6  1  0  0  0  0
 19 12  1  0  0  0  0
 20 14  1  0  0  0  0
 21 25  2  0  0  0  0
 22 20  1  0  0  0  0
 23 17  1  0  0  0  0
 24 21  1  0  0  0  0
 25 28  1  0  0  0  0
 26 27  2  0  0  0  0
 27 22  1  0  0  0  0
 28 22  2  0  0  0  0
 17 11  1  0  0  0  0
 15  8  1  0  0  0  0
 21 26  1  0  0  0  0
M  CHG  2   1   1   2  -1
M  END
> <#>
87

> <PLATE>
LAT002

> <ROW>
G

> <COL>
2

> <COORD>
G02

> <LATID>
LAT002G02

> <Supplier>
Microsource

> <Suplier_CAT#>
01501185

> <Name>
Econazole Nitrate

> <Concentration_(mM)>
2.5

> <IC50_(µM)>
25

> <Yeast_Active?>
+

> <Pubchem_CID>
68589

> <Description>
Antifungal

> <LATCA_Notes>
Phenocopies Brassinazole treatment

$$$$
