
  -ISIS-  08130814242D

 17 18  0  0  0  0  0  0  0  0999 V2000
    1.8042    2.3125    0.0000 C   0  0  0  0  0  0  0  0  0  0  0  0
    1.3500    3.1208    0.0000 C   0  0  0  0  0  0  0  0  0  0  0  0
    0.4167    3.1125    0.0000 C   0  0  0  0  0  0  0  0  0  0  0  0
    0.4292    1.5625    0.0000 C   0  0  0  0  0  0  0  0  0  0  0  0
    1.3500    1.5500    0.0000 C   0  0  0  0  0  0  0  0  0  0  0  0
    0.0000    2.3125    0.0000 C   0  0  0  0  0  0  0  0  0  0  0  0
    2.7500    2.3125    0.0000 C   0  0  0  0  0  0  0  0  0  0  0  0
    3.2042    3.1125    0.0000 O   0  0  0  0  0  0  0  0  0  0  0  0
   -0.0333    0.7500    0.0000 C   0  0  0  0  0  0  0  0  0  0  0  0
   -0.0708    3.8708    0.0000 Br  0  0  0  0  0  0  0  0  0  0  0  0
    1.8292    3.9000    0.0000 O   0  0  0  0  0  0  0  0  0  0  0  0
   -0.9500    0.7500    0.0000 C   0  0  0  0  0  0  0  0  0  0  0  0
   -1.4208    1.5500    0.0000 C   0  0  0  0  0  0  0  0  0  0  0  0
   -1.4000   -0.0292    0.0000 C   0  0  0  0  0  0  0  0  0  0  0  0
   -2.3125   -0.0292    0.0000 C   0  0  0  0  0  0  0  0  0  0  0  0
   -2.3125    1.5458    0.0000 C   0  0  0  0  0  0  0  0  0  0  0  0
   -2.7708    0.7708    0.0000 C   0  0  0  0  0  0  0  0  0  0  0  0
  2  1  2  0  0  0  0
  3  2  1  0  0  0  0
  4  5  2  0  0  0  0
  5  1  1  0  0  0  0
  6  4  1  0  0  0  0
  7  1  1  0  0  0  0
  8  7  2  0  0  0  0
  9  4  1  0  0  0  0
 10  3  1  0  0  0  0
 11  2  1  0  0  0  0
 12  9  1  0  0  0  0
 13 12  2  0  0  0  0
 14 12  1  0  0  0  0
 15 14  2  0  0  0  0
 16 13  1  0  0  0  0
 17 15  1  0  0  0  0
  6  3  2  0  0  0  0
 16 17  2  0  0  0  0
M  END
> <#>
1072

> <PLATE>
LAT014

> <ROW>
H

> <COL>
5

> <COORD>
H05

> <LATID>
LAT014H05

> <Supplier>
Chembridge

> <Suplier_CAT#>
5530238

> <Name>
Novel

> <Sec_Name>
152_B07

> <Concentration_(mM)>
2.5

> <IC50_(µM)>
18

> <Yeast_Active?>
+

> <Pubchem_CID>
871061

$$$$
