
  -ISIS-  08130814242D

 25 28  0  0  0  0  0  0  0  0999 V2000
    3.2792   -1.6875    0.0000 C   0  0  3  0  0  0  0  0  0  0  0  0
    2.6292   -1.3042    0.0000 O   0  0  0  0  0  0  0  0  0  0  0  0
    3.9292   -1.3125    0.0000 C   0  0  0  0  0  0  0  0  0  0  0  0
    1.9750   -1.6875    0.0000 C   0  0  0  0  0  0  0  0  0  0  0  0
    1.9750   -2.4417    0.0000 C   0  0  0  0  0  0  0  0  0  0  0  0
    2.6292   -2.8167    0.0000 O   0  0  0  0  0  0  0  0  0  0  0  0
    1.3167   -1.3042    0.0000 C   0  0  0  0  0  0  0  0  0  0  0  0
    4.5792   -2.4375    0.0000 N   0  0  0  0  0  0  0  0  0  0  0  0
    1.3167   -2.8167    0.0000 C   0  0  0  0  0  0  0  0  0  0  0  0
    3.2792   -2.4417    0.0000 C   0  0  0  0  0  0  0  0  0  0  0  0
    0.6667   -1.6875    0.0000 C   0  0  0  0  0  0  0  0  0  0  0  0
    0.6667   -2.4417    0.0000 C   0  0  0  0  0  0  0  0  0  0  0  0
    4.5792   -1.6875    0.0000 N   0  0  0  0  0  0  0  0  0  0  0  0
    5.2292   -2.8125    0.0000 C   0  0  0  0  0  0  0  0  0  0  0  0
    3.9292   -0.5625    0.0000 O   0  0  0  0  0  0  0  0  0  0  0  0
    6.5292   -2.8125    0.0000 N   0  0  0  0  0  0  0  0  0  0  0  0
    5.8792   -2.4375    0.0000 C   0  0  0  0  0  0  0  0  0  0  0  0
    7.1792   -2.4375    0.0000 C   0  0  0  0  0  0  0  0  0  0  0  0
    0.0125   -2.8167    0.0000 C   0  0  0  0  0  0  0  0  0  0  0  0
    0.0125   -1.3042    0.0000 C   0  0  0  0  0  0  0  0  0  0  0  0
    5.8792   -1.6875    0.0000 C   0  0  0  0  0  0  0  0  0  0  0  0
    7.1792   -1.6875    0.0000 C   0  0  0  0  0  0  0  0  0  0  0  0
   -0.6333   -1.6875    0.0000 C   0  0  0  0  0  0  0  0  0  0  0  0
   -0.6333   -2.4417    0.0000 C   0  0  0  0  0  0  0  0  0  0  0  0
    6.5292   -1.3125    0.0000 C   0  0  0  0  0  0  0  0  0  0  0  0
  2  1  1  0  0  0  0
  3  1  1  0  0  0  0
  4  2  1  0  0  0  0
  5  6  1  0  0  0  0
  6 10  1  0  0  0  0
  7  4  1  0  0  0  0
  8 13  1  0  0  0  0
  9  5  1  0  0  0  0
 10  1  1  0  0  0  0
 11  7  2  0  0  0  0
 12  9  2  0  0  0  0
 13  3  1  0  0  0  0
 14  8  2  0  0  0  0
 15  3  2  0  0  0  0
 16 17  1  0  0  0  0
 17 14  1  0  0  0  0
 18 16  2  0  0  0  0
 19 12  1  0  0  0  0
 20 11  1  0  0  0  0
 21 17  2  0  0  0  0
 22 25  2  0  0  0  0
 23 20  2  0  0  0  0
 24 19  2  0  0  0  0
 25 21  1  0  0  0  0
  5  4  2  0  0  0  0
 11 12  1  0  0  0  0
 24 23  1  0  0  0  0
 22 18  1  0  0  0  0
M  END
> <#>
938

> <PLATE>
LAT012

> <ROW>
B

> <COL>
9

> <COORD>
B09

> <LATID>
LAT012B09

> <Supplier>
Chembridge

> <Suplier_CAT#>
5770832

> <Name>
Novel

> <Sec_Name>
243_B08

> <Concentration_(mM)>
2.5

> <IC50_(µM)>
38

> <Yeast_Active?>
-

> <Pubchem_CID>
869842

$$$$
