
  -ISIS-  08130814242D

 27 30  0  0  0  0  0  0  0  0999 V2000
    6.3964   -1.7300    0.0000 C   0  0  0  0  0  0  0  0  0  0  0  0
    6.0170   -2.4778    0.0000 C   0  0  0  0  0  0  0  0  0  0  0  0
    6.4748   -3.1782    0.0000 C   0  0  0  0  0  0  0  0  0  0  0  0
    7.3119   -3.1319    0.0000 C   0  0  0  0  0  0  0  0  0  0  0  0
    7.6891   -2.3794    0.0000 C   0  0  0  0  0  0  0  0  0  0  0  0
    7.2291   -1.6821    0.0000 C   0  0  0  0  0  0  0  0  0  0  0  0
    4.9667   -3.3917    0.0000 C   0  0  0  0  0  0  0  0  0  0  0  0
    4.1417   -3.3875    0.0000 C   0  0  0  0  0  0  0  0  0  0  0  0
    3.7279   -4.0960    0.0000 C   0  0  0  0  0  0  0  0  0  0  0  0
    4.1345   -4.8131    0.0000 N   0  0  3  0  0  0  0  0  0  0  0  0
    4.9595   -4.8173    0.0000 C   0  0  0  0  0  0  0  0  0  0  0  0
    5.3779   -4.1043    0.0000 C   0  0  0  0  0  0  0  0  0  0  0  0
    6.0439   -0.9578    0.0000 C   0  0  0  0  0  0  0  0  0  0  0  0
    4.7330   -1.2962    0.0000 C   0  0  0  0  0  0  0  0  0  0  0  0
    4.7333   -2.1207    0.0000 C   0  0  0  0  0  0  0  0  0  0  0  0
    5.2224   -2.6070    0.0000 C   0  0  0  0  0  0  0  0  0  0  0  0
    5.2506   -0.8055    0.0000 C   0  0  0  0  0  0  0  0  0  0  0  0
    3.3069   -1.2958    0.0000 C   0  0  0  0  0  0  0  0  0  0  0  0
    3.3057   -2.1232    0.0000 C   0  0  0  0  0  0  0  0  0  0  0  0
    4.0206   -2.5360    0.0000 N   0  0  0  0  0  0  0  0  0  0  0  0
    4.0188   -0.8830    0.0000 C   0  0  0  0  0  0  0  0  0  0  0  0
    3.7174   -5.5249    0.0000 C   0  0  0  0  0  0  0  0  0  0  0  0
    8.5125   -2.3792    0.0000 Cl  0  0  0  0  0  0  0  0  0  0  0  0
    2.8895   -5.5211    0.0000 O   0  0  0  0  0  0  0  0  0  0  0  0
    4.1224   -6.2435    0.0000 O   0  0  0  0  0  0  0  0  0  0  0  0
    4.9458   -6.2417    0.0000 C   0  0  0  0  0  0  0  0  0  0  0  0
    5.5292   -5.6542    0.0000 C   0  0  0  0  0  0  0  0  0  0  0  0
 14 15  1  0  0  0  0
  7  8  1  0  0  0  0
  1  2  2  0  0  0  0
  3  4  2  0  0  0  0
 15 16  1  0  0  0  0
 16  2  1  0  0  0  0
 17 14  1  0  0  0  0
 13 17  1  0  0  0  0
  4  5  1  0  0  0  0
  2  3  1  0  0  0  0
 18 19  2  0  0  0  0
  5  6  2  0  0  0  0
 19 20  1  0  0  0  0
 20 15  2  0  0  0  0
  7 12  1  0  0  0  0
 14 21  2  0  0  0  0
 21 18  1  0  0  0  0
 16  7  2  0  0  0  0
  8  9  1  0  0  0  0
 10 22  1  0  0  0  0
  9 10  1  0  0  0  0
  5 23  1  0  0  0  0
 10 11  1  0  0  0  0
 11 12  1  0  0  0  0
 22 24  2  0  0  0  0
 22 25  1  0  0  0  0
 13  1  1  0  0  0  0
 25 26  1  0  0  0  0
  6  1  1  0  0  0  0
 26 27  1  0  0  0  0
M  END
> <#>
245

> <PLATE>
LAT004

> <ROW>
E

> <COL>
2

> <COORD>
E02

> <LATID>
LAT004E02

> <Supplier>
Sigma

> <Suplier_CAT#>
L 9664

> <Name>
Loratadine

> <Concentration_(mM)>
2.5

> <IC50_(µM)>
31

> <Yeast_Active?>
-

> <Pubchem_CID>
3957

> <Description>
H1 Histamine receptor antagonist

$$$$
