
  -ISIS-  08130814242D

 20 21  0  0  0  0  0  0  0  0999 V2000
    6.6542   -1.1875    0.0000 C   0  0  0  0  0  0  0  0  0  0  0  0
    6.1542   -1.7500    0.0000 O   0  0  0  0  0  0  0  0  0  0  0  0
    2.8667   -1.4375    0.0000 C   0  0  0  0  0  0  0  0  0  0  0  0
    5.4667   -1.4500    0.0000 C   0  0  0  0  0  0  0  0  0  0  0  0
    4.1667   -1.4375    0.0000 N   0  0  0  0  0  0  0  0  0  0  0  0
    6.2792   -0.5375    0.0000 C   0  0  0  0  0  0  0  0  0  0  0  0
    5.5500   -0.7000    0.0000 C   0  0  0  0  0  0  0  0  0  0  0  0
    4.8167   -1.8167    0.0000 C   0  0  0  0  0  0  0  0  0  0  0  0
    3.5167   -1.8167    0.0000 N   0  0  0  0  0  0  0  0  0  0  0  0
    2.8667   -0.6875    0.0000 O   0  0  0  0  0  0  0  0  0  0  0  0
    2.2167   -1.8167    0.0000 C   0  0  0  0  0  0  0  0  0  0  0  0
    7.4000   -1.2667    0.0000 Br  0  0  0  0  0  0  0  0  0  0  0  0
    1.5667   -1.4375    0.0000 O   0  0  0  0  0  0  0  0  0  0  0  0
    0.9167   -1.8167    0.0000 C   0  0  0  0  0  0  0  0  0  0  0  0
    0.2667   -1.4375    0.0000 C   0  0  0  0  0  0  0  0  0  0  0  0
   -0.3708   -1.8167    0.0000 C   0  0  0  0  0  0  0  0  0  0  0  0
    0.2667   -2.9500    0.0000 C   0  0  0  0  0  0  0  0  0  0  0  0
    0.9167   -2.5667    0.0000 C   0  0  0  0  0  0  0  0  0  0  0  0
   -0.3708   -2.5667    0.0000 C   0  0  0  0  0  0  0  0  0  0  0  0
   -1.0208   -1.4375    0.0000 C   0  0  0  0  0  0  0  0  0  0  0  0
  2  1  1  0  0  0  0
  3  9  1  0  0  0  0
  4  2  1  0  0  0  0
  5  8  2  0  0  0  0
  6  1  2  0  0  0  0
  7  6  1  0  0  0  0
  8  4  1  0  0  0  0
  9  5  1  0  0  0  0
 10  3  2  0  0  0  0
 11  3  1  0  0  0  0
 12  1  1  0  0  0  0
 13 11  1  0  0  0  0
 14 13  1  0  0  0  0
 15 14  1  0  0  0  0
 16 15  2  0  0  0  0
 17 18  1  0  0  0  0
 18 14  2  0  0  0  0
 19 17  2  0  0  0  0
 20 16  1  0  0  0  0
  4  7  2  0  0  0  0
 19 16  1  0  0  0  0
M  END
> <#>
547

> <PLATE>
LAT007

> <ROW>
C

> <COL>
10

> <COORD>
C10

> <LATID>
LAT007C10

> <Supplier>
Chembridge

> <Suplier_CAT#>
5471502

> <Name>
Novel

> <Sec_Name>
135_B05

> <Concentration_(mM)>
2.5

> <IC50_(µM)>
20

> <Yeast_Active?>
-

> <Pubchem_CID>
835202

$$$$
