
  -ISIS-  08130814242D

 28 29  0  0  0  0  0  0  0  0999 V2000
    7.8792   -7.2917    0.0000 C   0  0  0  0  0  0  0  0  0  0  0  0
    9.3042   -6.4667    0.0000 C   0  0  0  0  0  0  0  0  0  0  0  0
    8.5917   -7.7042    0.0000 C   0  0  0  0  0  0  0  0  0  0  0  0
    9.3042   -7.2917    0.0000 C   0  0  0  0  0  0  0  0  0  0  0  0
    7.1667   -7.7042    0.0000 O   0  0  0  0  0  0  0  0  0  0  0  0
    8.5917   -6.0542    0.0000 O   0  0  0  0  0  0  0  0  0  0  0  0
    7.8792   -6.4667    0.0000 O   0  0  0  0  0  0  0  0  0  0  0  0
   10.0167   -6.0542    0.0000 O   0  0  0  0  0  0  0  0  0  0  0  0
    5.1792   -8.0500    0.0000 C   0  0  3  0  0  0  0  0  0  0  0  0
    3.0417   -8.4625    0.0000 N   0  0  0  0  0  0  0  0  0  0  0  0
    4.4667   -8.4625    0.0000 C   0  0  0  0  0  0  0  0  0  0  0  0
    5.1792   -7.2250    0.0000 C   0  0  3  0  0  0  0  0  0  0  0  0
    5.8917   -8.4625    0.0000 C   0  0  3  0  0  0  0  0  0  0  0  0
    3.7542   -8.0500    0.0000 C   0  0  3  0  0  0  0  0  0  0  0  0
    2.3292   -8.0500    0.0000 C   0  0  0  0  0  0  0  0  0  0  0  0
    6.6042   -8.0500    0.0000 C   0  0  0  0  0  0  0  0  0  0  0  0
    5.8917   -6.8167    0.0000 C   0  0  0  0  0  0  0  0  0  0  0  0
    4.4667   -6.8167    0.0000 C   0  0  0  0  0  0  0  0  0  0  0  0
    5.8917   -9.2875    0.0000 C   0  0  0  0  0  0  0  0  0  0  0  0
    3.7542   -7.2292    0.0000 C   0  0  0  0  0  0  0  0  0  0  0  0
    2.3292   -7.2250    0.0000 C   0  0  0  0  0  0  0  0  0  0  0  0
    6.6042   -9.7000    0.0000 C   0  0  0  0  0  0  0  0  0  0  0  0
    7.3167   -8.4625    0.0000 C   0  0  0  0  0  0  0  0  0  0  0  0
    4.4667   -5.9917    0.0000 C   0  0  0  0  0  0  0  0  0  0  0  0
    5.8917   -5.9917    0.0000 C   0  0  0  0  0  0  0  0  0  0  0  0
    3.0417   -6.8125    0.0000 C   0  0  0  0  0  0  0  0  0  0  0  0
    5.1792   -5.5750    0.0000 C   0  0  0  0  0  0  0  0  0  0  0  0
    7.3167   -9.2917    0.0000 C   0  0  0  0  0  0  0  0  0  0  0  0
  2  4  1  0  0  0  0
  3  1  1  0  0  0  0
  4  3  2  0  0  0  0
  5  1  2  0  0  0  0
  6  2  2  0  0  0  0
  7  1  1  0  0  0  0
  8  2  1  0  0  0  0
 16 13  1  0  0  0  0
 17 12  1  0  0  0  0
 18 12  1  0  0  0  0
 19 13  1  0  0  0  0
 20 14  1  0  0  0  0
 21 15  1  0  0  0  0
 22 19  1  0  0  0  0
 23 16  1  0  0  0  0
 24 18  1  0  0  0  0
 25 17  1  0  0  0  0
 26 20  1  0  0  0  0
 27 24  1  0  0  0  0
 28 22  1  0  0  0  0
 28 23  1  0  0  0  0
 27 25  1  0  0  0  0
 21 26  1  0  0  0  0
 10 14  1  0  0  0  0
 11  9  1  0  0  0  0
 12  9  1  0  0  0  0
 13  9  1  0  0  0  0
 14 11  1  0  0  0  0
 15 10  1  0  0  0  0
M  END
> <#>
78

> <PLATE>
LAT001

> <ROW>
F

> <COL>
11

> <COORD>
F11

> <LATID>
LAT001F11

> <Supplier>
Microsource

> <Suplier_CAT#>
01503227

> <Name>
Perhexiline Maleate

> <Concentration_(mM)>
2.5

> <IC50_(µM)>
22

> <Yeast_Active?>
-

> <Pubchem_CID>
5284439

> <Description>
Coronary Vasodilator

$$$$
