
  -ISIS-  08130814242D

 21 22  0  0  0  0  0  0  0  0999 V2000
    4.1417   -4.4000    0.0000 S   0  0  3  0  0  0  0  0  0  0  0  0
    4.8792   -3.9667    0.0000 N   0  0  0  0  0  0  0  0  0  0  0  0
    3.3917   -3.9667    0.0000 C   0  0  0  0  0  0  0  0  0  0  0  0
    4.5500   -5.1125    0.0000 O   0  0  0  0  0  0  0  0  0  0  0  0
    3.7250   -5.1125    0.0000 O   0  0  0  0  0  0  0  0  0  0  0  0
    7.1000   -4.3917    0.0000 C   0  0  0  0  0  0  0  0  0  0  0  0
    5.6167   -4.3917    0.0000 C   0  0  0  0  0  0  0  0  0  0  0  0
    7.0917   -5.2500    0.0000 C   0  0  0  0  0  0  0  0  0  0  0  0
    6.3542   -3.9625    0.0000 C   0  0  0  0  0  0  0  0  0  0  0  0
    2.6542   -4.3917    0.0000 C   0  0  0  0  0  0  0  0  0  0  0  0
    3.4000   -3.1042    0.0000 C   0  0  0  0  0  0  0  0  0  0  0  0
    6.3500   -5.6792    0.0000 C   0  0  0  0  0  0  0  0  0  0  0  0
    5.6167   -5.2542    0.0000 C   0  0  0  0  0  0  0  0  0  0  0  0
    7.8375   -5.6792    0.0000 Br  0  0  0  0  0  0  0  0  0  0  0  0
    1.9125   -3.1042    0.0000 C   0  0  0  0  0  0  0  0  0  0  0  0
    1.9167   -3.9667    0.0000 C   0  0  0  0  0  0  0  0  0  0  0  0
    2.6542   -2.6792    0.0000 C   0  0  0  0  0  0  0  0  0  0  0  0
    1.2000   -2.6917    0.0000 O   0  0  0  0  0  0  0  0  0  0  0  0
    7.8417   -3.9667    0.0000 C   0  0  0  0  0  0  0  0  0  0  0  0
    0.4875   -3.1125    0.0000 C   0  0  0  0  0  0  0  0  0  0  0  0
   -0.2333   -2.7000    0.0000 C   0  0  0  0  0  0  0  0  0  0  0  0
  2  1  1  0  0  0  0
  3  1  1  0  0  0  0
  4  1  2  0  0  0  0
  5  1  2  0  0  0  0
  6  9  2  0  0  0  0
  7  2  1  0  0  0  0
  8 12  2  0  0  0  0
  9  7  1  0  0  0  0
 10  3  1  0  0  0  0
 11  3  2  0  0  0  0
 12 13  1  0  0  0  0
 13  7  2  0  0  0  0
 14  8  1  0  0  0  0
 15 17  2  0  0  0  0
 16 10  2  0  0  0  0
 17 11  1  0  0  0  0
 18 15  1  0  0  0  0
 19  6  1  0  0  0  0
 20 18  1  0  0  0  0
 21 20  1  0  0  0  0
 16 15  1  0  0  0  0
  6  8  1  0  0  0  0
M  END
> <#>
1093

> <PLATE>
LAT014

> <ROW>
E

> <COL>
8

> <COORD>
E08

> <LATID>
LAT014E08

> <Supplier>
Chembridge

> <Suplier_CAT#>
7704513

> <Name>
Novel

> <Concentration_(mM)>
2.5

> <IC50_(µM)>
inactive

> <Yeast_Active?>
-

> <Pubchem_CID>
2198586

$$$$
