
  -ISIS-  08130814242D

 20 21  0  0  0  0  0  0  0  0999 V2000
    7.0375   -3.2625    0.0000 C   0  0  0  0  0  0  0  0  0  0  0  0
    6.4125   -4.3450    0.0000 C   0  0  0  0  0  0  0  0  0  0  0  0
    5.1625   -4.3450    0.0000 C   0  0  0  0  0  0  0  0  0  0  0  0
    4.5375   -5.4276    0.0000 C   0  0  0  0  0  0  0  0  0  0  0  0
    3.2875   -5.4276    0.0000 C   0  0  0  0  0  0  0  0  0  0  0  0
    2.6625   -4.3450    0.0000 C   0  0  0  0  0  0  0  0  0  0  0  0
    1.4125   -4.3450    0.0000 O   0  0  0  0  0  0  0  0  0  0  0  0
    3.2875   -3.2625    0.0000 C   0  0  0  0  0  0  0  0  0  0  0  0
    4.5375   -3.2625    0.0000 C   0  0  0  0  0  0  0  0  0  0  0  0
    8.2875   -3.2625    0.0000 C   0  0  0  0  0  0  0  0  0  0  0  0
    8.9125   -2.1800    0.0000 C   0  0  0  0  0  0  0  0  0  0  0  0
   10.1625   -2.1800    0.0000 C   0  0  0  0  0  0  0  0  0  0  0  0
   10.7875   -3.2625    0.0000 C   0  0  0  0  0  0  0  0  0  0  0  0
   12.0375   -3.2625    0.0000 O   0  0  0  0  0  0  0  0  0  0  0  0
   10.1625   -4.3450    0.0000 C   0  0  0  0  0  0  0  0  0  0  0  0
    8.9125   -4.3450    0.0000 C   0  0  0  0  0  0  0  0  0  0  0  0
    6.4125   -2.1800    0.0000 C   0  0  0  0  0  0  0  0  0  0  0  0
    7.0375   -1.0974    0.0000 C   0  0  0  0  0  0  0  0  0  0  0  0
    7.0375   -5.4276    0.0000 C   0  0  0  0  0  0  0  0  0  0  0  0
    8.2875   -5.4276    0.0000 C   0  0  0  0  0  0  0  0  0  0  0  0
  1  2  2  0  0  0  0
  2  3  1  0  0  0  0
  3  4  1  0  0  0  0
  4  5  2  0  0  0  0
  5  6  1  0  0  0  0
  6  7  1  0  0  0  0
  6  8  2  0  0  0  0
  8  9  1  0  0  0  0
  3  9  2  0  0  0  0
  1 10  1  0  0  0  0
 10 11  1  0  0  0  0
 11 12  2  0  0  0  0
 12 13  1  0  0  0  0
 13 14  1  0  0  0  0
 13 15  2  0  0  0  0
 15 16  1  0  0  0  0
 10 16  2  0  0  0  0
 17 18  1  0  0  0  0
  1 17  1  0  0  0  0
 19 20  1  0  0  0  0
  2 19  1  0  0  0  0
M  END
> <#>
306

> <PLATE>
LAT004

> <ROW>
B

> <COL>
10

> <COORD>
B10

> <LATID>
LAT004B10

> <Supplier>
ICN

> <Suplier_CAT#>
101560

> <Name>
Diethylstilbestrol

> <Concentration_(mM)>
2.5

> <IC50_(µM)>
93

> <Yeast_Active?>
-

> <Pubchem_CID>
3054

$$$$
