
  -ISIS-  08130814242D

 20 22  0  0  0  0  0  0  0  0999 V2000
   -0.9125    1.4333    0.0000 N   0  0  0  0  0  0  0  0  0  0  0  0
   -0.1500    0.9500    0.0000 C   0  0  0  0  0  0  0  0  0  0  0  0
   -1.6125    0.8625    0.0000 C   0  0  0  0  0  0  0  0  0  0  0  0
   -0.3958    0.0500    0.0000 S   0  0  0  0  0  0  0  0  0  0  0  0
   -1.2958    0.0208    0.0000 C   0  0  0  0  0  0  0  0  0  0  0  0
    1.3667    0.5625    0.0000 N   0  0  0  0  0  0  0  0  0  0  0  0
    0.7292    1.1958    0.0000 N   0  0  0  0  0  0  0  0  0  0  0  0
   -2.4958    1.0125    0.0000 C   0  0  0  0  0  0  0  0  0  0  0  0
    3.2875   -1.3542    0.0000 N   0  0  0  0  0  0  0  0  0  0  0  0
    2.2292    0.8000    0.0000 C   0  0  0  0  0  0  0  0  0  0  0  0
    2.8875    0.1708    0.0000 C   0  0  0  0  0  0  0  0  0  0  0  0
    2.6500   -0.7000    0.0000 C   0  0  0  0  0  0  0  0  0  0  0  0
    4.1667   -1.1167    0.0000 C   0  0  0  0  0  0  0  0  0  0  0  0
   -2.8333    1.8500    0.0000 C   0  0  0  0  0  0  0  0  0  0  0  0
   -3.0500    0.2958    0.0000 C   0  0  0  0  0  0  0  0  0  0  0  0
    3.7500    0.4125    0.0000 C   0  0  0  0  0  0  0  0  0  0  0  0
    4.4042   -0.2500    0.0000 C   0  0  0  0  0  0  0  0  0  0  0  0
   -3.9583    0.4458    0.0000 C   0  0  0  0  0  0  0  0  0  0  0  0
   -3.7125    1.9708    0.0000 C   0  0  0  0  0  0  0  0  0  0  0  0
   -4.2708    1.2833    0.0000 C   0  0  0  0  0  0  0  0  0  0  0  0
  2  1  2  0  0  0  0
  3  1  1  0  0  0  0
  4  2  1  0  0  0  0
  5  3  2  0  0  0  0
  6  7  1  0  0  0  0
  7  2  1  0  0  0  0
  8  3  1  0  0  0  0
  9 12  2  0  0  0  0
 10  6  2  0  0  0  0
 11 10  1  0  0  0  0
 12 11  1  0  0  0  0
 13 17  2  0  0  0  0
 14  8  1  0  0  0  0
 15  8  2  0  0  0  0
 16 11  2  0  0  0  0
 17 16  1  0  0  0  0
 18 15  1  0  0  0  0
 19 14  2  0  0  0  0
 20 18  2  0  0  0  0
  4  5  1  0  0  0  0
 20 19  1  0  0  0  0
  9 13  1  0  0  0  0
M  END
> <#>
1692

> <PLATE>
LAT022

> <ROW>
D

> <COL>
3

> <COORD>
D03

> <LATID>
LAT022D03

> <Supplier>
Chembridge

> <Suplier_CAT#>
5904208

> <Name>
Novel

> <Concentration_(mM)>
2.5

> <IC50_(µM)>
97

> <Yeast_Active?>
-

> <Pubchem_CID>
2875542

$$$$
