
  -ISIS-  08130814242D

 27 30  0  0  0  0  0  0  0  0999 V2000
    2.8042    2.6458    0.0000 N   0  0  3  0  0  0  0  0  0  0  0  0
    2.2500    2.1458    0.0000 S   0  0  3  0  0  0  0  0  0  0  0  0
    3.5417    2.4875    0.0000 N   0  0  0  0  0  0  0  0  0  0  0  0
    2.7292    3.3958    0.0000 C   0  0  3  0  0  0  0  0  0  0  0  0
    3.9167    3.1458    0.0000 C   0  0  0  0  0  0  0  0  0  0  0  0
    3.4125    3.6958    0.0000 C   0  0  0  0  0  0  0  0  0  0  0  0
    2.0792    3.7708    0.0000 C   0  0  0  0  0  0  0  0  0  0  0  0
    1.7917    2.7458    0.0000 O   0  0  0  0  0  0  0  0  0  0  0  0
    1.6125    1.7458    0.0000 O   0  0  0  0  0  0  0  0  0  0  0  0
    2.5875    1.4750    0.0000 C   0  0  0  0  0  0  0  0  0  0  0  0
    4.6625    3.2208    0.0000 C   0  0  0  0  0  0  0  0  0  0  0  0
    2.0792    4.5125    0.0000 C   0  0  0  0  0  0  0  0  0  0  0  0
    5.8417    2.6875    0.0000 N   0  0  0  0  0  0  0  0  0  0  0  0
    5.1000    2.6083    0.0000 C   0  0  0  0  0  0  0  0  0  0  0  0
    2.7292    4.8875    0.0000 O   0  0  0  0  0  0  0  0  0  0  0  0
    1.4292    3.3958    0.0000 C   0  0  0  0  0  0  0  0  0  0  0  0
    4.9667    3.9000    0.0000 C   0  0  0  0  0  0  0  0  0  0  0  0
    6.1542    3.3750    0.0000 C   0  0  0  0  0  0  0  0  0  0  0  0
    2.1792    0.8458    0.0000 C   0  0  0  0  0  0  0  0  0  0  0  0
    3.3375    1.4333    0.0000 C   0  0  0  0  0  0  0  0  0  0  0  0
    1.4292    4.8875    0.0000 C   0  0  0  0  0  0  0  0  0  0  0  0
    5.7125    3.9833    0.0000 C   0  0  0  0  0  0  0  0  0  0  0  0
    0.7792    3.7708    0.0000 C   0  0  0  0  0  0  0  0  0  0  0  0
    2.5167    0.1833    0.0000 C   0  0  0  0  0  0  0  0  0  0  0  0
    3.6792    0.7708    0.0000 C   0  0  0  0  0  0  0  0  0  0  0  0
    0.7792    4.5125    0.0000 C   0  0  0  0  0  0  0  0  0  0  0  0
    3.2667    0.1375    0.0000 C   0  0  0  0  0  0  0  0  0  0  0  0
  2  1  1  0  0  0  0
  3  1  1  0  0  0  0
  4  1  1  0  0  0  0
  5  3  2  0  0  0  0
  6  4  1  0  0  0  0
  7  4  1  0  0  0  0
  8  2  2  0  0  0  0
  9  2  2  0  0  0  0
 10  2  1  0  0  0  0
 11  5  1  0  0  0  0
 12  7  1  0  0  0  0
 13 14  1  0  0  0  0
 14 11  2  0  0  0  0
 15 12  1  0  0  0  0
 16  7  2  0  0  0  0
 17 11  1  0  0  0  0
 18 22  1  0  0  0  0
 19 10  2  0  0  0  0
 20 10  1  0  0  0  0
 21 12  2  0  0  0  0
 22 17  2  0  0  0  0
 23 16  1  0  0  0  0
 24 19  1  0  0  0  0
 25 20  2  0  0  0  0
 26 23  2  0  0  0  0
 27 25  1  0  0  0  0
  5  6  1  0  0  0  0
 21 26  1  0  0  0  0
 24 27  2  0  0  0  0
 13 18  2  0  0  0  0
M  END
> <#>
1698

> <PLATE>
LAT022

> <ROW>
B

> <COL>
4

> <COORD>
B04

> <LATID>
LAT022B04

> <Supplier>
Chembridge

> <Suplier_CAT#>
9040112

> <Name>
Novel

> <Concentration_(mM)>
2.5

> <IC50_(µM)>
>100

> <Yeast_Active?>
-

> <Pubchem_CID>
6463732

$$$$
