
  -ISIS-  08130814242D

 13 13  0  0  0  0  0  0  0  0999 V2000
    2.7667   -1.8042    0.0000 C   0  0  1  0  0  0  0  0  0  0  0  0
    4.1042   -1.8042    0.0000 N   0  0  0  0  0  0  0  0  0  0  0  0
    1.9667   -1.5875    0.0000 C   0  0  1  0  0  0  0  0  0  0  0  0
    3.4375   -1.3167    0.0000 O   0  0  0  0  0  0  0  0  0  0  0  0
    3.0250   -2.5917    0.0000 C   0  0  0  0  0  0  0  0  0  0  0  0
    3.8500   -2.5917    0.0000 C   0  0  0  0  0  0  0  0  0  0  0  0
    1.3792   -2.1667    0.0000 C   0  0  0  0  0  0  0  0  0  0  0  0
    0.5875   -1.9417    0.0000 O   0  0  0  0  0  0  0  0  0  0  0  0
    1.7542   -0.7875    0.0000 N   0  0  0  0  0  0  0  0  0  0  0  0
    4.3292   -3.2542    0.0000 Cl  0  0  0  0  0  0  0  0  0  0  0  0
    1.5917   -2.9625    0.0000 O   0  0  0  0  0  0  0  0  0  0  0  0
    1.1667   -1.3667    0.0000 H   0  0  0  0  0  0  0  0  0  0  0  0
    2.1792   -2.3875    0.0000 H   0  0  0  0  0  0  0  0  0  0  0  0
  2  4  1  0  0  0  0
  1  3  1  1  0  0  0
  4  1  1  0  0  0  0
  5  1  1  0  0  0  0
  6  5  1  0  0  0  0
  7  3  1  0  0  0  0
  8  7  2  0  0  0  0
  9  3  1  0  0  0  0
 10  6  1  0  0  0  0
 11  7  1  0  0  0  0
  3 12  1  6  0  0  0
  1 13  1  6  0  0  0
  6  2  2  0  0  0  0
M  END
> <#>
175

> <PLATE>
LAT003

> <ROW>
G

> <COL>
3

> <COORD>
G03

> <LATID>
LAT003G03

> <Supplier>
Microsource

> <Suplier_CAT#>
01502002

> <Name>
Acivicin

> <Concentration_(mM)>
2.5

> <IC50_(µM)>
0.64

> <Yeast_Active?>
-

> <Pubchem_CID>
2007

> <Description>
Antineoplastic

> <Source>
Natural Product; ex Streptomyces civiceus

$$$$
