
  -ISIS-  08130814242D

 23 24  0  0  0  0  0  0  0  0999 V2000
   -1.5833   -0.3542    0.0000 C   0  0  0  0  0  0  0  0  0  0  0  0
   -1.5833    0.3625    0.0000 C   0  0  0  0  0  0  0  0  0  0  0  0
   -2.2000   -0.7375    0.0000 C   0  0  0  0  0  0  0  0  0  0  0  0
   -2.2000    0.7208    0.0000 C   0  0  0  0  0  0  0  0  0  0  0  0
   -2.8458    0.3625    0.0000 C   0  0  0  0  0  0  0  0  0  0  0  0
   -0.9458   -0.7375    0.0000 C   0  0  0  0  0  0  0  0  0  0  0  0
   -2.8458   -0.3542    0.0000 C   0  0  0  0  0  0  0  0  0  0  0  0
    1.6167    1.4625    0.0000 C   0  0  0  0  0  0  0  0  0  0  0  0
   -0.3000   -0.3542    0.0000 C   0  0  0  0  0  0  0  0  0  0  0  0
   -0.9458   -1.4792    0.0000 O   0  0  0  0  0  0  0  0  0  0  0  0
    1.6167    0.7208    0.0000 C   0  0  0  0  0  0  0  0  0  0  0  0
    0.9792    1.8208    0.0000 C   0  0  0  0  0  0  0  0  0  0  0  0
   -0.3000    0.3625    0.0000 O   0  0  0  0  0  0  0  0  0  0  0  0
   -0.9625    0.7458    0.0000 O   0  0  0  0  0  0  0  0  0  0  0  0
    0.3375    0.7208    0.0000 C   0  0  0  0  0  0  0  0  0  0  0  0
   -3.5000    0.7000    0.0000 O   0  0  0  0  0  0  0  0  0  0  0  0
    2.2792    1.8208    0.0000 C   0  0  3  0  0  0  0  0  0  0  0  0
    0.9792    0.3625    0.0000 C   0  0  0  0  0  0  0  0  0  0  0  0
    0.3375    1.4625    0.0000 C   0  0  0  0  0  0  0  0  0  0  0  0
   -3.5000   -0.7167    0.0000 C   0  0  0  0  0  0  0  0  0  0  0  0
    2.2792    2.5625    0.0000 C   0  0  0  0  0  0  0  0  0  0  0  0
    2.9000    1.4625    0.0000 C   0  0  0  0  0  0  0  0  0  0  0  0
   -4.1458   -0.3000    0.0000 C   0  0  0  0  0  0  0  0  0  0  0  0
  2  1  2  0  0  0  0
  3  1  1  0  0  0  0
  4  2  1  0  0  0  0
  5  7  1  0  0  0  0
  6  1  1  0  0  0  0
  7  3  2  0  0  0  0
  8 12  1  0  0  0  0
  9  6  1  0  0  0  0
 10  6  2  0  0  0  0
 11 18  1  0  0  0  0
 12 19  2  0  0  0  0
 13  9  1  0  0  0  0
 14  2  1  0  0  0  0
 15 13  1  0  0  0  0
 16  5  1  0  0  0  0
 17  8  1  0  0  0  0
 18 15  2  0  0  0  0
 19 15  1  0  0  0  0
 20  7  1  0  0  0  0
 21 17  1  0  0  0  0
 22 17  1  0  0  0  0
 23 20  1  0  0  0  0
  4  5  2  0  0  0  0
  8 11  2  0  0  0  0
M  END
> <#>
1313

> <PLATE>
LAT017

> <ROW>
A

> <COL>
6

> <COORD>
A06

> <LATID>
LAT017A06

> <Supplier>
Chembridge

> <Suplier_CAT#>
6943419

> <Name>
Novel

> <Concentration_(mM)>
2.5

> <IC50_(µM)>
inactive

> <Yeast_Active?>
-

> <Pubchem_CID>
800863

$$$$
