
  -ISIS-  08130814242D

 13 14  0  0  0  0  0  0  0  0999 V2000
    4.1917   -1.9292    0.0000 C   0  0  0  0  0  0  0  0  0  0  0  0
    3.5417   -1.5500    0.0000 C   0  0  0  0  0  0  0  0  0  0  0  0
    4.1917   -2.6792    0.0000 C   0  0  0  0  0  0  0  0  0  0  0  0
    2.8917   -1.9292    0.0000 C   0  0  0  0  0  0  0  0  0  0  0  0
    3.5417   -3.0542    0.0000 C   0  0  0  0  0  0  0  0  0  0  0  0
    2.8917   -2.6792    0.0000 C   0  0  0  0  0  0  0  0  0  0  0  0
    4.8500   -1.5500    0.0000 N   0  0  0  0  0  0  0  0  0  0  0  0
    3.5417   -0.8000    0.0000 O   0  0  0  0  0  0  0  0  0  0  0  0
    2.2417   -1.5542    0.0000 Br  0  0  0  0  0  0  0  0  0  0  0  0
    3.5417   -3.8042    0.0000 Br  0  0  0  0  0  0  0  0  0  0  0  0
    4.8500   -3.0542    0.0000 C   0  0  0  0  0  0  0  0  0  0  0  0
    5.5042   -1.9292    0.0000 C   0  0  0  0  0  0  0  0  0  0  0  0
    5.5042   -2.6792    0.0000 C   0  0  0  0  0  0  0  0  0  0  0  0
  2  1  1  0  0  0  0
  3  1  1  0  0  0  0
  4  2  2  0  0  0  0
  5  3  1  0  0  0  0
  6  5  2  0  0  0  0
  7  1  2  0  0  0  0
  8  2  1  0  0  0  0
  9  4  1  0  0  0  0
 10  5  1  0  0  0  0
 11  3  2  0  0  0  0
 12  7  1  0  0  0  0
 13 12  2  0  0  0  0
 11 13  1  0  0  0  0
  4  6  1  0  0  0  0
M  END
> <#>
136

> <PLATE>
LAT002

> <ROW>
H

> <COL>
8

> <COORD>
H08

> <LATID>
LAT002H08

> <Supplier>
Microsource

> <Suplier_CAT#>
01500623

> <Name>
Broxyquinoline

> <Concentration_(mM)>
2.5

> <IC50_(µM)>
30

> <Yeast_Active?>
+

> <Pubchem_CID>
2453

> <Description>
Antiseptic, Disinfectant

$$$$
