
  -ISIS-  08130814242D

 24 26  0  0  0  0  0  0  0  0999 V2000
    1.0000    1.7000    0.0000 N   0  0  3  0  0  0  0  0  0  0  0  0
    0.1000    1.5208    0.0000 C   0  0  0  0  0  0  0  0  0  0  0  0
   -0.3458    2.2958    0.0000 C   0  0  0  0  0  0  0  0  0  0  0  0
    1.0792    2.6333    0.0000 N   0  0  0  0  0  0  0  0  0  0  0  0
    0.2500    2.9708    0.0000 C   0  0  0  0  0  0  0  0  0  0  0  0
   -1.2333    2.2958    0.0000 N   0  0  0  0  0  0  0  0  0  0  0  0
   -5.3333    1.5208    0.0000 C   0  0  0  0  0  0  0  0  0  0  0  0
   -0.3458    0.7500    0.0000 O   0  0  0  0  0  0  0  0  0  0  0  0
    1.6667    1.1125    0.0000 C   0  0  0  0  0  0  0  0  0  0  0  0
   -1.7000    1.5000    0.0000 N   0  0  0  0  0  0  0  0  0  0  0  0
   -4.4333    1.5208    0.0000 C   0  0  0  0  0  0  0  0  0  0  0  0
   -5.7958    0.7500    0.0000 O   0  0  0  0  0  0  0  0  0  0  0  0
   -3.9708    2.3000    0.0000 C   0  0  0  0  0  0  0  0  0  0  0  0
   -3.9958    0.7458    0.0000 C   0  0  0  0  0  0  0  0  0  0  0  0
   -2.6125    1.5000    0.0000 C   0  0  0  0  0  0  0  0  0  0  0  0
   -5.8125    2.2958    0.0000 O   0  0  0  0  0  0  0  0  0  0  0  0
    0.1167    3.8708    0.0000 C   0  0  0  0  0  0  0  0  0  0  0  0
   -3.0625    0.7333    0.0000 C   0  0  0  0  0  0  0  0  0  0  0  0
   -3.0500    2.2958    0.0000 C   0  0  0  0  0  0  0  0  0  0  0  0
    1.4875    0.2000    0.0000 C   0  0  0  0  0  0  0  0  0  0  0  0
    2.5542    1.3708    0.0000 C   0  0  0  0  0  0  0  0  0  0  0  0
    2.1667   -0.4167    0.0000 C   0  0  0  0  0  0  0  0  0  0  0  0
    3.2375    0.7833    0.0000 C   0  0  0  0  0  0  0  0  0  0  0  0
    3.0500   -0.1292    0.0000 C   0  0  0  0  0  0  0  0  0  0  0  0
  2  1  1  0  0  0  0
  3  2  1  0  0  0  0
  4  1  1  0  0  0  0
  5  4  2  0  0  0  0
  6  3  2  0  0  0  0
  7 11  1  0  0  0  0
  8  2  2  0  0  0  0
  9  1  1  0  0  0  0
 10  6  1  0  0  0  0
 11 13  2  0  0  0  0
 12  7  2  0  0  0  0
 13 19  1  0  0  0  0
 14 18  2  0  0  0  0
 15 10  1  0  0  0  0
 16  7  1  0  0  0  0
 17  5  1  0  0  0  0
 18 15  1  0  0  0  0
 19 15  2  0  0  0  0
 20  9  1  0  0  0  0
 21  9  2  0  0  0  0
 22 20  2  0  0  0  0
 23 21  1  0  0  0  0
 24 23  2  0  0  0  0
  3  5  1  0  0  0  0
 22 24  1  0  0  0  0
 11 14  1  0  0  0  0
M  END
> <#>
1048

> <PLATE>
LAT014

> <ROW>
H

> <COL>
2

> <COORD>
H02

> <LATID>
LAT014H02

> <Supplier>
Chembridge

> <Suplier_CAT#>
5466668

> <Name>
Novel

> <Sec_Name>
131_F09

> <Concentration_(mM)>
2.5

> <IC50_(µM)>
>100

> <Yeast_Active?>
-

> <Pubchem_CID>
NULL

$$$$
