
  -ISIS-  08130814242D

 18 18  0  0  0  0  0  0  0  0999 V2000
    3.1292   -1.8917    0.0000 N   0  0  3  0  0  0  0  0  0  0  0  0
    2.4167   -2.3042    0.0000 C   0  0  0  0  0  0  0  0  0  0  0  0
    3.8500   -2.3000    0.0000 C   0  0  0  0  0  0  0  0  0  0  0  0
    3.8500   -3.1250    0.0000 O   0  0  0  0  0  0  0  0  0  0  0  0
    1.7042   -1.8917    0.0000 C   0  0  0  0  0  0  0  0  0  0  0  0
    2.4167   -3.1375    0.0000 C   0  0  0  0  0  0  0  0  0  0  0  0
    3.1292   -1.0667    0.0000 C   0  0  0  0  0  0  0  0  0  0  0  0
    4.5625   -1.8875    0.0000 C   0  0  0  0  0  0  0  0  0  0  0  0
    5.2792   -2.2917    0.0000 Cl  0  0  0  0  0  0  0  0  0  0  0  0
    3.8417   -0.6500    0.0000 O   0  0  0  0  0  0  0  0  0  0  0  0
    0.9917   -3.1375    0.0000 C   0  0  0  0  0  0  0  0  0  0  0  0
    0.9917   -2.3125    0.0000 C   0  0  0  0  0  0  0  0  0  0  0  0
    1.7042   -3.5500    0.0000 C   0  0  0  0  0  0  0  0  0  0  0  0
    1.7000   -1.0667    0.0000 C   0  0  0  0  0  0  0  0  0  0  0  0
    3.1375   -3.5500    0.0000 C   0  0  0  0  0  0  0  0  0  0  0  0
    3.8375    0.1750    0.0000 C   0  0  0  0  0  0  0  0  0  0  0  0
    2.4167   -0.6542    0.0000 C   0  0  0  0  0  0  0  0  0  0  0  0
    3.1375   -4.3750    0.0000 C   0  0  0  0  0  0  0  0  0  0  0  0
  2  1  1  0  0  0  0
  3  1  1  0  0  0  0
  4  3  2  0  0  0  0
  5  2  2  0  0  0  0
  6  2  1  0  0  0  0
  7  1  1  0  0  0  0
  8  3  1  0  0  0  0
  9  8  1  0  0  0  0
 10  7  1  0  0  0  0
 11 13  1  0  0  0  0
 12  5  1  0  0  0  0
 13  6  2  0  0  0  0
 14  5  1  0  0  0  0
 15  6  1  0  0  0  0
 16 10  1  0  0  0  0
 17 14  1  0  0  0  0
 18 15  1  0  0  0  0
 12 11  2  0  0  0  0
M  END
> <#>
185

> <PLATE>
LAT003

> <ROW>
A

> <COL>
5

> <COORD>
A05

> <LATID>
LAT003A05

> <Supplier>
Microsource

> <Suplier_CAT#>
00330043

> <Name>
Alachlor

> <Concentration_(mM)>
2.5

> <IC50_(µM)>
2.5

> <Yeast_Active?>
-

> <Pubchem_CID>
2078

> <Description>
Herbicide

> <Comment>
Fatty acid Elongase Inhibitor

> <LATCA_Notes>
Used as a monoct selective herbicide

$$$$
