
  -ISIS-  08130814242D

 14 14  0  0  0  0  0  0  0  0999 V2000
    3.9875   -3.5417    0.0000 C   0  0  0  0  0  0  0  0  0  0  0  0
    3.9875   -2.7167    0.0000 N   0  0  0  0  0  0  0  0  0  0  0  0
    4.7000   -3.9542    0.0000 N   0  0  0  0  0  0  0  0  0  0  0  0
    5.4167   -2.7167    0.0000 N   0  0  0  0  0  0  0  0  0  0  0  0
    4.7000   -2.3042    0.0000 C   0  0  0  0  0  0  0  0  0  0  0  0
    5.4167   -3.5417    0.0000 C   0  0  0  0  0  0  0  0  0  0  0  0
    3.2667   -3.9542    0.0000 N   0  0  0  0  0  0  0  0  0  0  0  0
    4.6917   -1.4792    0.0000 N   0  0  0  0  0  0  0  0  0  0  0  0
    6.1292   -3.9542    0.0000 Cl  0  0  0  0  0  0  0  0  0  0  0  0
    2.5542   -3.5417    0.0000 C   0  0  3  0  0  0  0  0  0  0  0  0
    5.4125   -1.0667    0.0000 C   0  0  0  0  0  0  0  0  0  0  0  0
    2.5542   -2.7167    0.0000 C   0  0  0  0  0  0  0  0  0  0  0  0
    1.8417   -3.9542    0.0000 C   0  0  0  0  0  0  0  0  0  0  0  0
    5.4042   -0.2417    0.0000 C   0  0  0  0  0  0  0  0  0  0  0  0
  2  1  2  0  0  0  0
  3  1  1  0  0  0  0
  4  6  1  0  0  0  0
  5  2  1  0  0  0  0
  6  3  2  0  0  0  0
  7  1  1  0  0  0  0
  8  5  1  0  0  0  0
  9  6  1  0  0  0  0
 10  7  1  0  0  0  0
 11  8  1  0  0  0  0
 12 10  1  0  0  0  0
 13 10  1  0  0  0  0
 14 11  1  0  0  0  0
  5  4  2  0  0  0  0
M  END
> <#>
179

> <PLATE>
LAT003

> <ROW>
C

> <COL>
4

> <COORD>
C04

> <LATID>
LAT003C04

> <Supplier>
Microsource

> <Suplier_CAT#>
00330029

> <Name>
Atrazine

> <Concentration_(mM)>
2.5

> <IC50_(µM)>
inactive

> <Yeast_Active?>
-

> <Pubchem_CID>
2256

> <Description>
Herbicide

> <Comment>
PS II Target

$$$$
