
  -ISIS-  08130814242D

 11 11  0  0  0  0  0  0  0  0999 V2000
    2.2292   -1.2667    0.0000 C   0  0  0  0  0  0  0  0  0  0  0  0
    1.1042   -0.6167    0.0000 Hg  0  0  0  0  0  0  0  0  0  0  0  0
    1.4792   -1.2667    0.0000 O   0  0  0  0  0  0  0  0  0  0  0  0
    2.6042   -0.6167    0.0000 O   0  0  0  0  0  0  0  0  0  0  0  0
    0.3542   -0.6167    0.0000 C   0  0  0  0  0  0  0  0  0  0  0  0
    2.6042   -1.9167    0.0000 C   0  0  0  0  0  0  0  0  0  0  0  0
   -0.0208    0.0333    0.0000 C   0  0  0  0  0  0  0  0  0  0  0  0
   -0.0208   -1.2667    0.0000 C   0  0  0  0  0  0  0  0  0  0  0  0
   -0.7708   -1.2667    0.0000 C   0  0  0  0  0  0  0  0  0  0  0  0
   -0.7750    0.0333    0.0000 C   0  0  0  0  0  0  0  0  0  0  0  0
   -1.1500   -0.6167    0.0000 C   0  0  0  0  0  0  0  0  0  0  0  0
  2  3  1  0  0  0  0
  3  1  1  0  0  0  0
  4  1  2  0  0  0  0
  5  2  1  0  0  0  0
  6  1  1  0  0  0  0
  7  5  2  0  0  0  0
  8  5  1  0  0  0  0
  9  8  2  0  0  0  0
 10  7  1  0  0  0  0
 11  9  1  0  0  0  0
 11 10  2  0  0  0  0
M  END
> <#>
164

> <PLATE>
LAT003

> <ROW>
D

> <COL>
2

> <COORD>
D02

> <LATID>
LAT003D02

> <Supplier>
Microsource

> <Suplier_CAT#>
01500644

> <Name>
Phenylmercuric Acetate

> <Concentration_(mM)>
2.5

> <IC50_(µM)>
0.34

> <Yeast_Active?>
+

> <Pubchem_CID>
566

> <Description>
Fungicide

$$$$
