
  -ISIS-  08130814242D

 21 24  0  0  0  0  0  0  0  0999 V2000
   -1.2208    1.2208    0.0000 C   0  0  3  0  0  0  0  0  0  0  0  0
    0.0500    0.6833    0.0000 N   0  0  3  0  0  0  0  0  0  0  0  0
   -1.0000    1.5833    0.0000 C   0  0  3  0  0  0  0  0  0  0  0  0
   -0.7500    0.3333    0.0000 C   0  0  0  0  0  0  0  0  0  0  0  0
    0.0000    1.5625    0.0000 C   0  0  0  0  0  0  0  0  0  0  0  0
   -2.0958    1.6958    0.0000 C   0  0  3  0  0  0  0  0  0  0  0  0
   -1.8625    2.0708    0.0000 C   0  0  3  0  0  0  0  0  0  0  0  0
   -2.0000    2.9125    0.0000 O   0  0  0  0  0  0  0  0  0  0  0  0
   -3.1333    1.2708    0.0000 C   0  0  0  0  0  0  0  0  0  0  0  0
   -2.8625    1.6958    0.0000 C   0  0  0  0  0  0  0  0  0  0  0  0
    0.8000    0.2125    0.0000 C   0  0  0  0  0  0  0  0  0  0  0  0
   -0.9833   -0.5292    0.0000 O   0  0  0  0  0  0  0  0  0  0  0  0
    0.6500    2.1625    0.0000 O   0  0  0  0  0  0  0  0  0  0  0  0
    1.6000    0.6333    0.0000 C   0  0  0  0  0  0  0  0  0  0  0  0
    0.8000   -0.7000    0.0000 C   0  0  0  0  0  0  0  0  0  0  0  0
   -2.6333    0.9833    0.0000 C   0  0  0  0  0  0  0  0  0  0  0  0
    2.3542   -0.7042    0.0000 C   0  0  0  0  0  0  0  0  0  0  0  0
    1.5542   -1.1500    0.0000 C   0  0  0  0  0  0  0  0  0  0  0  0
    2.3542    0.1833    0.0000 C   0  0  0  0  0  0  0  0  0  0  0  0
    3.1292   -1.1500    0.0000 F   0  0  0  0  0  0  0  0  0  0  0  0
   -2.2958    0.1625    0.0000 O   0  0  0  0  0  0  0  0  0  0  0  0
  2  4  1  0  0  0  0
  3  1  1  0  0  0  0
  4  1  1  0  0  0  0
  5  3  1  0  0  0  0
  6  1  1  0  0  0  0
  7  3  1  0  0  0  0
  8  6  1  0  0  0  0
  9  6  1  0  0  0  0
 10  9  2  0  0  0  0
 11  2  1  0  0  0  0
 12  4  2  0  0  0  0
 13  5  2  0  0  0  0
 14 11  1  0  0  0  0
 15 11  2  0  0  0  0
 16  6  1  0  0  0  0
 17 18  2  0  0  0  0
 18 15  1  0  0  0  0
 19 14  2  0  0  0  0
 20 17  1  0  0  0  0
 21 16  1  0  0  0  0
  8  7  1  0  0  0  0
  5  2  1  0  0  0  0
  7 10  1  0  0  0  0
 19 17  1  0  0  0  0
M  END
> <#>
2022

> <PLATE>
LAT026

> <ROW>
F

> <COL>
4

> <COORD>
F04

> <LATID>
LAT026F04

> <Supplier>
Chembridge

> <Suplier_CAT#>
5668347

> <Sec_Name>
211_D06

> <Concentration_(mM)>
2.5

> <IC50_(µM)>
inactive

> <Yeast_Active?>
-

> <Pubchem_CID>
2859988

$$$$
