
  -ISIS-  08130814242D

 28 29  0  0  0  0  0  0  0  0999 V2000
    5.5167    2.9333    0.0000 C   0  0  0  0  0  0  0  0  0  0  0  0
    5.1417    3.5833    0.0000 C   0  0  0  0  0  0  0  0  0  0  0  0
    5.1417    2.2833    0.0000 C   0  0  0  0  0  0  0  0  0  0  0  0
    6.2667    2.9333    0.0000 O   0  0  0  0  0  0  0  0  0  0  0  0
    4.3917    3.5833    0.0000 C   0  0  0  0  0  0  0  0  0  0  0  0
    4.3917    2.2833    0.0000 C   0  0  0  0  0  0  0  0  0  0  0  0
    1.0167    1.6333    0.0000 N   0  0  0  0  0  0  0  0  0  0  0  0
    4.0167    2.9333    0.0000 C   0  0  0  0  0  0  0  0  0  0  0  0
    2.8917    2.2833    0.0000 N   0  0  0  0  0  0  0  0  0  0  0  0
    5.5167    4.2292    0.0000 Cl  0  0  0  0  0  0  0  0  0  0  0  0
    6.6417    2.2833    0.0000 C   0  0  0  0  0  0  0  0  0  0  0  0
    5.5167    1.6333    0.0000 O   0  0  0  0  0  0  0  0  0  0  0  0
    1.7667    1.6333    0.0000 C   0  0  0  0  0  0  0  0  0  0  0  0
    7.3917    2.2833    0.0000 C   0  0  0  0  0  0  0  0  0  0  0  0
    3.2667    2.9333    0.0000 C   0  0  0  0  0  0  0  0  0  0  0  0
    2.1417    2.2833    0.0000 C   0  0  0  0  0  0  0  0  0  0  0  0
    0.6417    0.9833    0.0000 C   0  0  0  0  0  0  0  0  0  0  0  0
    5.1417    0.9833    0.0000 C   0  0  0  0  0  0  0  0  0  0  0  0
    2.1417    0.9833    0.0000 C   0  0  0  0  0  0  0  0  0  0  0  0
    7.7667    2.9333    0.0000 C   0  0  0  0  0  0  0  0  0  0  0  0
    7.7667    1.6333    0.0000 C   0  0  0  0  0  0  0  0  0  0  0  0
    5.5167    0.3333    0.0000 C   0  0  0  0  0  0  0  0  0  0  0  0
    1.0167    0.3333    0.0000 C   0  0  0  0  0  0  0  0  0  0  0  0
    8.5167    1.6333    0.0000 C   0  0  0  0  0  0  0  0  0  0  0  0
    1.7667    0.3333    0.0000 C   0  0  0  0  0  0  0  0  0  0  0  0
    8.5167    2.9333    0.0000 C   0  0  0  0  0  0  0  0  0  0  0  0
    8.8917    2.2833    0.0000 C   0  0  0  0  0  0  0  0  0  0  0  0
    9.6417    0.3333    0.0000 Cl  0  0  0  0  0  0  0  0  0  0  0  0
  2  1  2  0  0  0  0
  3  1  1  0  0  0  0
  4  1  1  0  0  0  0
  5  2  1  0  0  0  0
  6  3  2  0  0  0  0
  7 13  2  0  0  0  0
  8  6  1  0  0  0  0
  9 15  1  0  0  0  0
 10  2  1  0  0  0  0
 11  4  1  0  0  0  0
 12  3  1  0  0  0  0
 13 16  1  0  0  0  0
 14 11  1  0  0  0  0
 15  8  1  0  0  0  0
 16  9  1  0  0  0  0
 17  7  1  0  0  0  0
 18 12  1  0  0  0  0
 19 13  1  0  0  0  0
 20 14  1  0  0  0  0
 21 14  2  0  0  0  0
 22 18  1  0  0  0  0
 23 25  1  0  0  0  0
 24 21  1  0  0  0  0
 25 19  2  0  0  0  0
 26 20  2  0  0  0  0
 27 24  2  0  0  0  0
  5  8  2  0  0  0  0
 26 27  1  0  0  0  0
 23 17  2  0  0  0  0
M  END
> <#>
1457

> <PLATE>
LAT019

> <ROW>
A

> <COL>
4

> <COORD>
A04

> <LATID>
LAT019A04

> <Supplier>
Chembridge

> <Suplier_CAT#>
9015676

> <Name>
Novel

> <Concentration_(mM)>
2.5

> <IC50_(µM)>
>100

> <Yeast_Active?>
-

> <Pubchem_CID>
4720766

$$$$
