
  -ISIS-  08130814242D

 24 26  0  0  0  0  0  0  0  0999 V2000
    1.8875   -0.9500    0.0000 C   0  0  3  0  0  0  0  0  0  0  0  0
    2.3042   -1.5250    0.0000 C   0  0  0  0  0  0  0  0  0  0  0  0
    1.8875   -2.1667    0.0000 N   0  0  3  0  0  0  0  0  0  0  0  0
    1.1667   -1.9375    0.0000 C   0  0  0  0  0  0  0  0  0  0  0  0
    1.1667   -1.1792    0.0000 C   0  0  0  0  0  0  0  0  0  0  0  0
    2.6542   -0.2417    0.0000 C   0  0  0  0  0  0  0  0  0  0  0  0
    3.5292   -0.4042    0.0000 C   0  0  0  0  0  0  0  0  0  0  0  0
    3.9875    0.1958    0.0000 C   0  0  0  0  0  0  0  0  0  0  0  0
    3.0292   -1.5875    0.0000 O   0  0  0  0  0  0  0  0  0  0  0  0
    2.1292   -2.8750    0.0000 C   0  0  3  0  0  0  0  0  0  0  0  0
    4.7292    0.0958    0.0000 C   0  0  0  0  0  0  0  0  0  0  0  0
    3.7792   -0.9292    0.0000 O   0  0  0  0  0  0  0  0  0  0  0  0
    1.5292   -0.1542    0.0000 O   0  0  0  0  0  0  0  0  0  0  0  0
    0.5167   -2.3125    0.0000 C   0  0  0  0  0  0  0  0  0  0  0  0
    0.5167   -0.8042    0.0000 C   0  0  0  0  0  0  0  0  0  0  0  0
    5.0167   -0.6042    0.0000 O   0  0  0  0  0  0  0  0  0  0  0  0
    3.7000    0.8833    0.0000 C   0  0  0  0  0  0  0  0  0  0  0  0
    5.1875    0.6833    0.0000 C   0  0  0  0  0  0  0  0  0  0  0  0
    2.8750   -3.0125    0.0000 C   0  0  0  0  0  0  0  0  0  0  0  0
    1.6542   -3.4417    0.0000 C   0  0  0  0  0  0  0  0  0  0  0  0
   -0.1333   -1.9375    0.0000 C   0  0  0  0  0  0  0  0  0  0  0  0
   -0.1333   -1.1792    0.0000 C   0  0  0  0  0  0  0  0  0  0  0  0
    4.1542    1.4833    0.0000 C   0  0  0  0  0  0  0  0  0  0  0  0
    4.9042    1.3833    0.0000 C   0  0  0  0  0  0  0  0  0  0  0  0
  2  1  1  0  0  0  0
  3  2  1  0  0  0  0
  4  5  2  0  0  0  0
  5  1  1  0  0  0  0
  6  1  1  0  0  0  0
  7  6  1  0  0  0  0
  8  7  1  0  0  0  0
  9  2  2  0  0  0  0
 10  3  1  0  0  0  0
 11  8  1  0  0  0  0
 12  7  2  0  0  0  0
 13  1  1  0  0  0  0
 14  4  1  0  0  0  0
 15  5  1  0  0  0  0
 16 11  1  0  0  0  0
 17  8  2  0  0  0  0
 18 11  2  0  0  0  0
 19 10  1  0  0  0  0
 20 10  1  0  0  0  0
 21 22  1  0  0  0  0
 22 15  2  0  0  0  0
 23 17  1  0  0  0  0
 24 23  2  0  0  0  0
  4  3  1  0  0  0  0
 14 21  2  0  0  0  0
 18 24  1  0  0  0  0
M  END
> <#>
1347

> <PLATE>
LAT017

> <ROW>
C

> <COL>
10

> <COORD>
C10

> <LATID>
LAT017C10

> <Supplier>
Chembridge

> <Suplier_CAT#>
7469901

> <Name>
Novel

> <Concentration_(mM)>
2.5

> <IC50_(µM)>
>100

> <Yeast_Active?>
-

> <Pubchem_CID>
891212

$$$$
