
  -ISIS-  08130814242D

 20 21  0  0  0  0  0  0  0  0999 V2000
    0.0875    4.1667    0.0000 N   0  3  0  0  0  0  0  0  0  0  0  0
    0.0875    3.3958    0.0000 C   0  0  0  0  0  0  0  0  0  0  0  0
   -0.5958    2.2125    0.0000 C   0  0  0  0  0  0  0  0  0  0  0  0
   -0.5958    2.9958    0.0000 C   0  0  0  0  0  0  0  0  0  0  0  0
   -4.0000    1.8208    0.0000 C   0  0  0  0  0  0  0  0  0  0  0  0
    0.7542    4.5542    0.0000 O   0  5  0  0  0  0  0  0  0  0  0  0
   -3.3208    2.2125    0.0000 C   0  0  0  0  0  0  0  0  0  0  0  0
   -0.5833    4.5417    0.0000 O   0  0  0  0  0  0  0  0  0  0  0  0
    0.0875    1.8125    0.0000 C   0  0  0  0  0  0  0  0  0  0  0  0
   -4.0000    1.0333    0.0000 C   0  0  0  0  0  0  0  0  0  0  0  0
   -1.2833    1.8208    0.0000 C   0  0  0  0  0  0  0  0  0  0  0  0
   -1.9708    2.2125    0.0000 N   0  0  0  0  0  0  0  0  0  0  0  0
    0.7667    3.0000    0.0000 C   0  0  0  0  0  0  0  0  0  0  0  0
   -2.6333    1.8208    0.0000 C   0  0  0  0  0  0  0  0  0  0  0  0
    0.7667    2.2125    0.0000 C   0  0  0  0  0  0  0  0  0  0  0  0
   -3.2958    0.6333    0.0000 C   0  0  0  0  0  0  0  0  0  0  0  0
   -4.6833    2.2208    0.0000 Cl  0  0  0  0  0  0  0  0  0  0  0  0
   -4.6833    0.6625    0.0000 F   0  0  0  0  0  0  0  0  0  0  0  0
   -2.6333    1.0333    0.0000 C   0  0  0  0  0  0  0  0  0  0  0  0
    0.0875    1.0333    0.0000 O   0  0  0  0  0  0  0  0  0  0  0  0
  2  1  1  0  0  0  0
  3  4  2  0  0  0  0
  4  2  1  0  0  0  0
  5  7  2  0  0  0  0
  6  1  1  0  0  0  0
  7 14  1  0  0  0  0
  8  1  2  0  0  0  0
  9 15  2  0  0  0  0
 10 16  2  0  0  0  0
 11  3  1  0  0  0  0
 12 11  1  0  0  0  0
 13  2  2  0  0  0  0
 14 12  1  0  0  0  0
 15 13  1  0  0  0  0
 16 19  1  0  0  0  0
 17  5  1  0  0  0  0
 18 10  1  0  0  0  0
 19 14  2  0  0  0  0
 20  9  1  0  0  0  0
  9  3  1  0  0  0  0
  5 10  1  0  0  0  0
M  CHG  2   1   1   6  -1
M  END
> <#>
579

> <PLATE>
LAT008

> <ROW>
C

> <COL>
4

> <COORD>
C04

> <LATID>
LAT008C04

> <Supplier>
Chembridge

> <Suplier_CAT#>
5461570

> <Name>
Novel

> <Sec_Name>
128_B08

> <Concentration_(mM)>
2.5

> <IC50_(µM)>
18

> <Yeast_Active?>
-

> <Pubchem_CID>
784386

$$$$
