
  -ISIS-  08130814242D

 17 17  0  0  0  0  0  0  0  0999 V2000
   -0.1458   -0.3875    0.0000 C   0  0  0  0  0  0  0  0  0  0  0  0
   -1.7458   -0.4000    0.0000 C   0  0  3  0  0  0  0  0  0  0  0  0
    0.6667   -0.8500    0.0000 C   0  0  0  0  0  0  0  0  0  0  0  0
   -0.9458   -0.8542    0.0000 C   0  0  0  0  0  0  0  0  0  0  0  0
    1.4792   -0.3792    0.0000 C   0  0  0  0  0  0  0  0  0  0  0  0
    2.2875   -0.8500    0.0000 C   0  0  0  0  0  0  0  0  0  0  0  0
    1.4792    0.5625    0.0000 C   0  0  0  0  0  0  0  0  0  0  0  0
    0.6667   -1.7792    0.0000 O   0  0  0  0  0  0  0  0  0  0  0  0
   -2.5458    0.0625    0.0000 Cl  0  0  0  0  0  0  0  0  0  0  0  0
   -2.2125   -1.2042    0.0000 Cl  0  0  0  0  0  0  0  0  0  0  0  0
   -1.2708    0.4125    0.0000 Cl  0  0  0  0  0  0  0  0  0  0  0  0
   -0.9458   -1.7875    0.0000 N   0  0  0  0  0  0  0  0  0  0  0  0
    3.1000   -0.3792    0.0000 C   0  0  0  0  0  0  0  0  0  0  0  0
    2.2875    1.0333    0.0000 C   0  0  0  0  0  0  0  0  0  0  0  0
    3.1000    0.5625    0.0000 C   0  0  0  0  0  0  0  0  0  0  0  0
    2.2875   -1.7792    0.0000 O   0  0  0  0  0  0  0  0  0  0  0  0
    2.2875    1.9625    0.0000 Cl  0  0  0  0  0  0  0  0  0  0  0  0
  2  4  1  0  0  0  0
  3  1  1  0  0  0  0
  4  1  2  0  0  0  0
  5  3  1  0  0  0  0
  6  5  2  0  0  0  0
  7  5  1  0  0  0  0
  8  3  2  0  0  0  0
  9  2  1  0  0  0  0
 10  2  1  0  0  0  0
 11  2  1  0  0  0  0
 12  4  1  0  0  0  0
 13  6  1  0  0  0  0
 14  7  2  0  0  0  0
 15 14  1  0  0  0  0
 16  6  1  0  0  0  0
 17 14  1  0  0  0  0
 13 15  2  0  0  0  0
M  END
> <#>
723

> <PLATE>
LAT010

> <ROW>
C

> <COL>
2

> <COORD>
C02

> <LATID>
LAT010C02

> <Supplier>
Chembridge

> <Suplier_CAT#>
5563864

> <Name>
Novel

> <Sec_Name>
170_A07

> <Concentration_(mM)>
2.5

> <IC50_(µM)>
21

> <Yeast_Active?>
-

> <Pubchem_CID>
872088

$$$$
