
  -ISIS-  08130814242D

 24 23  0  0  0  0  0  0  0  0999 V2000
    1.7167   -0.1542    0.0000 N   0  3  3  0  0  0  0  0  0  0  0  0
    1.3042    0.5625    0.0000 C   0  0  0  0  0  0  0  0  0  0  0  0
    0.4792    0.5625    0.0000 C   0  0  0  0  0  0  0  0  0  0  0  0
    2.5417   -0.1542    0.0000 C   0  0  0  0  0  0  0  0  0  0  0  0
    0.8917   -0.1542    0.0000 C   0  0  0  0  0  0  0  0  0  0  0  0
    1.3042   -0.8667    0.0000 C   0  0  0  0  0  0  0  0  0  0  0  0
    0.0667   -0.1500    0.0000 C   0  0  0  0  0  0  0  0  0  0  0  0
    0.0667    1.2750    0.0000 C   0  0  0  0  0  0  0  0  0  0  0  0
    3.2542    0.2583    0.0000 C   0  0  0  0  0  0  0  0  0  0  0  0
   10.3792    0.2583    0.0000 C   0  0  0  0  0  0  0  0  0  0  0  0
    9.6667   -0.1542    0.0000 C   0  0  0  0  0  0  0  0  0  0  0  0
    6.8167   -0.1542    0.0000 C   0  0  0  0  0  0  0  0  0  0  0  0
    7.5292    0.2583    0.0000 C   0  0  0  0  0  0  0  0  0  0  0  0
    8.2417   -0.1542    0.0000 C   0  0  0  0  0  0  0  0  0  0  0  0
    8.9542    0.2583    0.0000 C   0  0  0  0  0  0  0  0  0  0  0  0
    3.9667   -0.1542    0.0000 C   0  0  0  0  0  0  0  0  0  0  0  0
    4.6792    0.2583    0.0000 C   0  0  0  0  0  0  0  0  0  0  0  0
    5.3917   -0.1542    0.0000 C   0  0  0  0  0  0  0  0  0  0  0  0
    6.1042    0.2583    0.0000 C   0  0  0  0  0  0  0  0  0  0  0  0
   11.0917   -0.1500    0.0000 C   0  0  0  0  0  0  0  0  0  0  0  0
   -0.7583   -0.1500    0.0000 C   0  0  0  0  0  0  0  0  0  0  0  0
   -0.7583    1.2708    0.0000 C   0  0  0  0  0  0  0  0  0  0  0  0
   -1.1708    0.5583    0.0000 C   0  0  0  0  0  0  0  0  0  0  0  0
    2.5792   -0.9375    0.0000 Cl  0  5  0  0  0  0  0  0  0  0  0  0
  2  1  1  0  0  0  0
  3  2  1  0  0  0  0
  4  1  1  0  0  0  0
  5  1  1  0  0  0  0
  6  1  1  0  0  0  0
  7  3  1  0  0  0  0
  8  3  2  0  0  0  0
  9  4  1  0  0  0  0
 10 11  1  0  0  0  0
 11 15  1  0  0  0  0
 12 19  1  0  0  0  0
 13 12  1  0  0  0  0
 14 13  1  0  0  0  0
 15 14  1  0  0  0  0
 16  9  1  0  0  0  0
 17 16  1  0  0  0  0
 18 17  1  0  0  0  0
 19 18  1  0  0  0  0
 20 10  1  0  0  0  0
 21  7  2  0  0  0  0
 22  8  1  0  0  0  0
 23 21  1  0  0  0  0
 22 23  2  0  0  0  0
M  CHG  2   1   1  24  -1
M  END
> <#>
72

> <PLATE>
LAT001

> <ROW>
H

> <COL>
10

> <COORD>
H10

> <LATID>
LAT001H10

> <Supplier>
Microsource

> <Suplier_CAT#>
01503610

> <Name>
Benzalkonium Chloride

> <Concentration_(mM)>
2.5

> <IC50_(µM)>
5.4

> <Yeast_Active?>
+

> <Pubchem_CID>
23705

> <Description>
Antiinfective (Topical)

$$$$
