
  -ISIS-  08130814242D

 20 21  0  0  0  0  0  0  0  0999 V2000
    1.2792   -9.5167    0.0000 S   0  0  3  0  0  0  0  0  0  0  0  0
    2.0292   -9.5292    0.0000 N   0  0  0  0  0  0  0  0  0  0  0  0
    0.5292   -9.5167    0.0000 C   0  0  0  0  0  0  0  0  0  0  0  0
    1.2792   -8.7667    0.0000 O   0  0  0  0  0  0  0  0  0  0  0  0
    1.2792  -10.2667    0.0000 O   0  0  0  0  0  0  0  0  0  0  0  0
    3.5292   -8.2292    0.0000 C   0  0  0  0  0  0  0  0  0  0  0  0
    2.4042   -8.8792    0.0000 C   0  0  0  0  0  0  0  0  0  0  0  0
    3.1542   -7.5792    0.0000 C   0  0  0  0  0  0  0  0  0  0  0  0
    3.1542   -8.8792    0.0000 C   0  0  0  0  0  0  0  0  0  0  0  0
    0.1542   -8.8667    0.0000 C   0  0  0  0  0  0  0  0  0  0  0  0
    0.1542  -10.1667    0.0000 C   0  0  0  0  0  0  0  0  0  0  0  0
    2.4042   -7.5792    0.0000 C   0  0  0  0  0  0  0  0  0  0  0  0
    2.0292   -8.2292    0.0000 C   0  0  0  0  0  0  0  0  0  0  0  0
    3.5292   -6.9292    0.0000 Br  0  0  0  0  0  0  0  0  0  0  0  0
   -0.9625   -9.5167    0.0000 C   0  0  0  0  0  0  0  0  0  0  0  0
   -0.5833   -8.8667    0.0000 C   0  0  0  0  0  0  0  0  0  0  0  0
   -0.5833  -10.1667    0.0000 C   0  0  0  0  0  0  0  0  0  0  0  0
   -1.7125   -9.5167    0.0000 O   0  0  0  0  0  0  0  0  0  0  0  0
    4.2792   -8.2292    0.0000 C   0  0  0  0  0  0  0  0  0  0  0  0
   -2.0958   -8.8667    0.0000 C   0  0  0  0  0  0  0  0  0  0  0  0
  2  1  1  0  0  0  0
  3  1  1  0  0  0  0
  4  1  2  0  0  0  0
  5  1  2  0  0  0  0
  6  9  1  0  0  0  0
  7  2  1  0  0  0  0
  8 12  1  0  0  0  0
  9  7  2  0  0  0  0
 10  3  2  0  0  0  0
 11  3  1  0  0  0  0
 12 13  2  0  0  0  0
 13  7  1  0  0  0  0
 14  8  1  0  0  0  0
 15 17  1  0  0  0  0
 16 10  1  0  0  0  0
 17 11  2  0  0  0  0
 18 15  1  0  0  0  0
 19  6  1  0  0  0  0
 20 18  1  0  0  0  0
 16 15  2  0  0  0  0
  6  8  2  0  0  0  0
M  END
> <#>
657

> <PLATE>
LAT009

> <ROW>
A

> <COL>
4

> <COORD>
A04

> <LATID>
LAT009A04

> <Supplier>
Chembridge

> <Suplier_CAT#>
5527301

> <Name>
Novel

> <Sec_Name>
150_D04

> <Concentration_(mM)>
2.5

> <IC50_(µM)>
23

> <Yeast_Active?>
-

> <Pubchem_CID>
1085698

$$$$
