
  -ISIS-  08130814242D

 20 23  0  0  0  0  0  0  0  0999 V2000
    6.2167   -3.3917    0.0000 C   0  0  1  0  0  0  0  0  0  0  0  0
    5.7792   -3.8375    0.0000 C   0  0  2  0  0  0  0  0  0  0  0  0
    6.9042   -3.6542    0.0000 C   0  0  2  0  0  0  0  0  0  0  0  0
    5.7667   -4.5625    0.0000 O   0  0  0  0  0  0  0  0  0  0  0  0
    6.4417   -4.8250    0.0000 C   0  0  0  0  0  0  0  0  0  0  0  0
    5.3917   -3.3875    0.0000 O   0  0  0  0  0  0  0  0  0  0  0  0
    5.0292   -3.8375    0.0000 O   0  0  0  0  0  0  0  0  0  0  0  0
    6.1042   -2.6750    0.0000 C   0  0  1  0  0  0  0  0  0  0  0  0
    4.3917   -3.4042    0.0000 C   0  0  2  0  0  0  0  0  0  0  0  0
    7.0167   -4.3750    0.0000 C   0  0  2  0  0  0  0  0  0  0  0  0
    5.1750   -2.8042    0.0000 O   0  0  0  0  0  0  0  0  0  0  0  0
    7.4667   -3.1917    0.0000 C   0  0  0  0  0  0  0  0  0  0  0  0
    5.3042   -2.3250    0.0000 C   0  0  0  0  0  0  0  0  0  0  0  0
    6.5542   -5.5500    0.0000 O   0  0  0  0  0  0  0  0  0  0  0  0
    6.6667   -2.2042    0.0000 C   0  0  1  0  0  0  0  0  0  0  0  0
    7.3542   -2.4667    0.0000 C   0  0  0  0  0  0  0  0  0  0  0  0
    4.5917   -2.6500    0.0000 C   0  0  0  0  0  0  0  0  0  0  0  0
    3.6417   -3.7417    0.0000 C   0  0  0  0  0  0  0  0  0  0  0  0
    7.7167   -4.5625    0.0000 C   0  0  0  0  0  0  0  0  0  0  0  0
    6.6667   -1.4750    0.0000 C   0  0  0  0  0  0  0  0  0  0  0  0
  2  1  1  0  0  0  0
  3  1  1  0  0  0  0
  2  4  1  6  0  0  0
  5 10  1  0  0  0  0
  1  6  1  6  0  0  0
  7  2  1  0  0  0  0
  8  1  1  0  0  0  0
  9 11  1  6  0  0  0
 10  3  1  0  0  0  0
 11  6  1  0  0  0  0
  3 12  1  1  0  0  0
  8 13  1  1  0  0  0
 14  5  2  0  0  0  0
 15  8  1  0  0  0  0
 16 15  1  0  0  0  0
 17 13  1  0  0  0  0
  9 18  1  1  0  0  0
 10 19  1  1  0  0  0
 15 20  1  6  0  0  0
 12 16  1  0  0  0  0
 17  9  1  0  0  0  0
  9  7  1  0  0  0  0
  4  5  1  0  0  0  0
M  END
> <#>
80

> <PLATE>
LAT001

> <ROW>
H

> <COL>
11

> <COORD>
H11

> <LATID>
LAT001H11

> <Supplier>
Microsource

> <Suplier_CAT#>
01503042

> <Name>
Artemisinin

> <Concentration_(mM)>
2.5

> <IC50_(µM)>
43

> <Yeast_Active?>
-

> <Pubchem_CID>
2240

> <Description>
Antimalarial

> <Source>
Natural Product; ex Artemisia annua

$$$$
