
  -ISIS-  08130814242D

 22 24  0  0  0  0  0  0  0  0999 V2000
    2.2042   -1.5125    0.0000 C   0  0  3  0  0  0  0  0  0  0  0  0
    2.6292   -2.0875    0.0000 C   0  0  0  0  0  0  0  0  0  0  0  0
    1.4917   -1.7417    0.0000 C   0  0  0  0  0  0  0  0  0  0  0  0
    2.2042   -2.7292    0.0000 N   0  0  0  0  0  0  0  0  0  0  0  0
    2.9750   -0.8042    0.0000 C   0  0  0  0  0  0  0  0  0  0  0  0
    1.4917   -2.5000    0.0000 C   0  0  0  0  0  0  0  0  0  0  0  0
    3.8500   -0.9667    0.0000 C   0  0  0  0  0  0  0  0  0  0  0  0
    4.3042   -0.3667    0.0000 C   0  0  0  0  0  0  0  0  0  0  0  0
    0.8375   -1.3667    0.0000 C   0  0  0  0  0  0  0  0  0  0  0  0
    3.3500   -2.1500    0.0000 O   0  0  0  0  0  0  0  0  0  0  0  0
    5.0500   -0.4667    0.0000 C   0  0  0  0  0  0  0  0  0  0  0  0
    4.1000   -1.4917    0.0000 O   0  0  0  0  0  0  0  0  0  0  0  0
    0.8375   -2.8750    0.0000 C   0  0  0  0  0  0  0  0  0  0  0  0
    1.8500   -0.7167    0.0000 O   0  0  0  0  0  0  0  0  0  0  0  0
    0.1917   -1.7417    0.0000 C   0  0  0  0  0  0  0  0  0  0  0  0
    0.1917   -2.5000    0.0000 C   0  0  0  0  0  0  0  0  0  0  0  0
   -0.4625   -1.3667    0.0000 Br  0  0  0  0  0  0  0  0  0  0  0  0
    5.3375   -1.1667    0.0000 O   0  0  0  0  0  0  0  0  0  0  0  0
    4.0167    0.3208    0.0000 C   0  0  0  0  0  0  0  0  0  0  0  0
    5.5042    0.1208    0.0000 C   0  0  0  0  0  0  0  0  0  0  0  0
    4.4792    0.9208    0.0000 C   0  0  0  0  0  0  0  0  0  0  0  0
    5.2250    0.8208    0.0000 C   0  0  0  0  0  0  0  0  0  0  0  0
  2  1  1  0  0  0  0
  3  1  1  0  0  0  0
  4  2  1  0  0  0  0
  5  1  1  0  0  0  0
  6  3  2  0  0  0  0
  7  5  1  0  0  0  0
  8  7  1  0  0  0  0
  9  3  1  0  0  0  0
 10  2  2  0  0  0  0
 11  8  1  0  0  0  0
 12  7  2  0  0  0  0
 13  6  1  0  0  0  0
 14  1  1  0  0  0  0
 15  9  2  0  0  0  0
 16 15  1  0  0  0  0
 17 15  1  0  0  0  0
 18 11  1  0  0  0  0
 19  8  2  0  0  0  0
 20 11  2  0  0  0  0
 21 19  1  0  0  0  0
 22 21  2  0  0  0  0
  6  4  1  0  0  0  0
 13 16  2  0  0  0  0
 20 22  1  0  0  0  0
M  END
> <#>
1273

> <PLATE>
LAT016

> <ROW>
A

> <COL>
11

> <COORD>
A11

> <LATID>
LAT016A11

> <Supplier>
Chembridge

> <Suplier_CAT#>
6645284

> <Name>
Novel

> <Concentration_(mM)>
2.5

> <IC50_(µM)>
>100

> <Yeast_Active?>
-

> <Pubchem_CID>
1341768

$$$$
