
  -ISIS-  08130814242D

 27 30  0  0  0  0  0  0  0  0999 V2000
    3.4027   -3.3208    0.0000 C   0  0  0  0  0  0  0  0  0  0  0  0
    3.4016   -4.1482    0.0000 C   0  0  0  0  0  0  0  0  0  0  0  0
    4.1164   -4.5610    0.0000 C   0  0  0  0  0  0  0  0  0  0  0  0
    4.1146   -2.9080    0.0000 C   0  0  0  0  0  0  0  0  0  0  0  0
    4.8300   -3.3172    0.0000 C   0  0  0  0  0  0  0  0  0  0  0  0
    4.8307   -4.1440    0.0000 C   0  0  0  0  0  0  0  0  0  0  0  0
    5.5460   -4.5550    0.0000 C   0  0  0  0  0  0  0  0  0  0  0  0
    6.2611   -4.1402    0.0000 N   0  3  0  0  0  0  0  0  0  0  0  0
    5.5404   -2.9030    0.0000 C   0  0  0  0  0  0  0  0  0  0  0  0
    6.2528   -3.3089    0.0000 C   0  0  0  0  0  0  0  0  0  0  0  0
    6.2357   -1.6713    0.0000 C   0  0  0  0  0  0  0  0  0  0  0  0
    5.5331   -2.0876    0.0000 C   0  0  0  0  0  0  0  0  0  0  0  0
    6.9528   -2.0753    0.0000 C   0  0  0  0  0  0  0  0  0  0  0  0
    6.9558   -2.8940    0.0000 C   0  0  0  0  0  0  0  0  0  0  0  0
    7.6652   -3.2990    0.0000 C   0  0  0  0  0  0  0  0  0  0  0  0
    7.6551   -1.6633    0.0000 C   0  0  0  0  0  0  0  0  0  0  0  0
    8.3651   -2.0646    0.0000 C   0  0  0  0  0  0  0  0  0  0  0  0
    8.3708   -2.8850    0.0000 C   0  0  0  0  0  0  0  0  0  0  0  0
    9.1529   -3.1332    0.0000 O   0  0  0  0  0  0  0  0  0  0  0  0
    9.6306   -2.4660    0.0000 C   0  0  0  0  0  0  0  0  0  0  0  0
    9.1436   -1.8057    0.0000 O   0  0  0  0  0  0  0  0  0  0  0  0
    2.6868   -4.5601    0.0000 O   0  0  0  0  0  0  0  0  0  0  0  0
    4.1183   -5.3860    0.0000 O   0  0  0  0  0  0  0  0  0  0  0  0
    6.9780   -4.5484    0.0000 C   0  0  0  0  0  0  0  0  0  0  0  0
    1.8583   -4.5542    0.0000 C   0  0  0  0  0  0  0  0  0  0  0  0
    4.9417   -5.3833    0.0000 C   0  0  0  0  0  0  0  0  0  0  0  0
    8.8000   -4.6917    0.0000 Cl  0  5  0  0  0  0  0  0  0  0  0  0
 11 12  1  0  0  0  0
 12  9  2  0  0  0  0
  5  6  1  0  0  0  0
 13 14  1  0  0  0  0
  2  3  1  0  0  0  0
 14 15  1  0  0  0  0
 15 18  2  0  0  0  0
  6  7  1  0  0  0  0
 17 16  2  0  0  0  0
 16 13  1  0  0  0  0
 17 18  1  0  0  0  0
  3  6  2  0  0  0  0
  7  8  2  0  0  0  0
  8 10  1  0  0  0  0
  9  5  1  0  0  0  0
 18 19  1  0  0  0  0
 19 20  1  0  0  0  0
 20 21  1  0  0  0  0
 21 17  1  0  0  0  0
  5  4  2  0  0  0  0
  2 22  1  0  0  0  0
  9 10  1  0  0  0  0
  3 23  1  0  0  0  0
 10 14  2  0  0  0  0
  8 24  1  0  0  0  0
  4  1  1  0  0  0  0
 22 25  1  0  0  0  0
 13 11  2  0  0  0  0
 23 26  1  0  0  0  0
  1  2  2  0  0  0  0
M  CHG  2   8   1  27  -1
M  END
> <#>
209

> <PLATE>
LAT003

> <ROW>
A

> <COL>
8

> <COORD>
A08

> <LATID>
LAT003A08

> <Supplier>
Sigma

> <Suplier_CAT#>
C 2932

> <Name>
Chelerythrine Chloride

> <Concentration_(mM)>
2.5

> <IC50_(µM)>
4.3

> <Yeast_Active?>
+

> <Pubchem_CID>
2703

> <Description>
PKC inhibitor; affects translocation of PKC from cytosol to plasma membrane

$$$$
