
  -ISIS-  08130814242D

 24 26  0  0  0  0  0  0  0  0999 V2000
    5.0292   -1.1875    0.0000 C   0  0  0  0  0  0  0  0  0  0  0  0
    5.7667   -1.2667    0.0000 C   0  0  0  0  0  0  0  0  0  0  0  0
    4.5167   -1.7500    0.0000 O   0  0  0  0  0  0  0  0  0  0  0  0
    6.0792   -1.9542    0.0000 C   0  0  0  0  0  0  0  0  0  0  0  0
    4.6500   -0.5375    0.0000 C   0  0  0  0  0  0  0  0  0  0  0  0
    3.8375   -1.4375    0.0000 C   0  0  0  0  0  0  0  0  0  0  0  0
    1.2375   -1.4375    0.0000 C   0  0  0  0  0  0  0  0  0  0  0  0
    2.5375   -1.4375    0.0000 N   0  0  0  0  0  0  0  0  0  0  0  0
    3.9167   -0.7000    0.0000 C   0  0  0  0  0  0  0  0  0  0  0  0
    3.1875   -1.8167    0.0000 C   0  0  0  0  0  0  0  0  0  0  0  0
    6.8167   -2.0375    0.0000 C   0  0  0  0  0  0  0  0  0  0  0  0
    1.8875   -1.8167    0.0000 N   0  0  0  0  0  0  0  0  0  0  0  0
    1.2375   -0.6875    0.0000 O   0  0  0  0  0  0  0  0  0  0  0  0
   -0.7000   -2.5667    0.0000 N   0  0  0  0  0  0  0  0  0  0  0  0
    0.5875   -1.8167    0.0000 C   0  0  0  0  0  0  0  0  0  0  0  0
    5.6292   -2.5542    0.0000 Cl  0  0  0  0  0  0  0  0  0  0  0  0
    7.1292   -2.7167    0.0000 Cl  0  0  0  0  0  0  0  0  0  0  0  0
    6.2042   -0.6667    0.0000 C   0  0  0  0  0  0  0  0  0  0  0  0
    6.9542   -0.7375    0.0000 C   0  0  0  0  0  0  0  0  0  0  0  0
   -0.7000   -1.8167    0.0000 C   0  0  0  0  0  0  0  0  0  0  0  0
   -0.0500   -2.9500    0.0000 C   0  0  0  0  0  0  0  0  0  0  0  0
    7.2542   -1.4292    0.0000 C   0  0  0  0  0  0  0  0  0  0  0  0
    0.5875   -2.5667    0.0000 C   0  0  0  0  0  0  0  0  0  0  0  0
   -0.0500   -1.4375    0.0000 C   0  0  0  0  0  0  0  0  0  0  0  0
  2  1  1  0  0  0  0
  3  1  1  0  0  0  0
  4  2  1  0  0  0  0
  5  1  2  0  0  0  0
  6  3  1  0  0  0  0
  7 12  1  0  0  0  0
  8 10  2  0  0  0  0
  9  5  1  0  0  0  0
 10  6  1  0  0  0  0
 11  4  2  0  0  0  0
 12  8  1  0  0  0  0
 13  7  2  0  0  0  0
 14 20  1  0  0  0  0
 15  7  1  0  0  0  0
 16  4  1  0  0  0  0
 17 11  1  0  0  0  0
 18  2  2  0  0  0  0
 19 18  1  0  0  0  0
 20 24  2  0  0  0  0
 21 23  1  0  0  0  0
 22 19  2  0  0  0  0
 23 15  2  0  0  0  0
 24 15  1  0  0  0  0
  9  6  2  0  0  0  0
 11 22  1  0  0  0  0
 21 14  2  0  0  0  0
M  END
> <#>
1779

> <PLATE>
LAT023

> <ROW>
C

> <COL>
4

> <COORD>
C04

> <LATID>
LAT023C04

> <Supplier>
Chembridge

> <Suplier_CAT#>
5541543

> <Name>
Novel

> <Sec_Name>
159_C11

> <Concentration_(mM)>
2.5

> <IC50_(µM)>
18

> <Yeast_Active?>
-

> <Pubchem_CID>
1353453

$$$$
