
  -ISIS-  08130814242D

 20 22  0  0  0  0  0  0  0  0999 V2000
   -1.9333    0.3500    0.0000 C   0  0  0  0  0  0  0  0  0  0  0  0
   -2.8125    0.5708    0.0000 N   0  0  0  0  0  0  0  0  0  0  0  0
   -1.2958    1.0125    0.0000 N   0  0  0  0  0  0  0  0  0  0  0  0
   -3.0500    1.4708    0.0000 C   0  0  0  0  0  0  0  0  0  0  0  0
   -1.5500    1.8958    0.0000 N   0  0  0  0  0  0  0  0  0  0  0  0
   -1.6708   -0.5500    0.0000 N   0  0  0  0  0  0  0  0  0  0  0  0
   -0.7708   -0.7667    0.0000 N   0  0  0  0  0  0  0  0  0  0  0  0
   -2.4125    2.1125    0.0000 C   0  0  0  0  0  0  0  0  0  0  0  0
   -3.9333    1.6958    0.0000 C   0  0  0  0  0  0  0  0  0  0  0  0
   -0.5125   -1.6500    0.0000 C   0  0  0  0  0  0  0  0  0  0  0  0
   -4.5708    1.0333    0.0000 C   0  0  0  0  0  0  0  0  0  0  0  0
   -4.1958    2.5708    0.0000 C   0  0  0  0  0  0  0  0  0  0  0  0
   -1.1333   -2.3042    0.0000 C   0  0  0  0  0  0  0  0  0  0  0  0
    0.3875   -1.8667    0.0000 C   0  0  0  0  0  0  0  0  0  0  0  0
   -5.0958    2.7958    0.0000 C   0  0  0  0  0  0  0  0  0  0  0  0
   -5.4583    1.2333    0.0000 C   0  0  0  0  0  0  0  0  0  0  0  0
    0.6500   -2.7500    0.0000 C   0  0  0  0  0  0  0  0  0  0  0  0
   -0.8708   -3.1667    0.0000 C   0  0  0  0  0  0  0  0  0  0  0  0
   -5.7208    2.1125    0.0000 C   0  0  0  0  0  0  0  0  0  0  0  0
   -0.0125   -3.3875    0.0000 C   0  0  0  0  0  0  0  0  0  0  0  0
  2  1  1  0  0  0  0
  3  1  2  0  0  0  0
  4  2  2  0  0  0  0
  5  3  1  0  0  0  0
  6  1  1  0  0  0  0
  7  6  1  0  0  0  0
  8  5  2  0  0  0  0
  9  4  1  0  0  0  0
 10  7  1  0  0  0  0
 11  9  1  0  0  0  0
 12  9  2  0  0  0  0
 13 10  2  0  0  0  0
 14 10  1  0  0  0  0
 15 12  1  0  0  0  0
 16 11  2  0  0  0  0
 17 14  2  0  0  0  0
 18 13  1  0  0  0  0
 19 15  2  0  0  0  0
 20 17  1  0  0  0  0
  4  8  1  0  0  0  0
 18 20  2  0  0  0  0
 19 16  1  0  0  0  0
M  END
> <#>
951

> <PLATE>
LAT012

> <ROW>
G

> <COL>
10

> <COORD>
G10

> <LATID>
LAT012G10

> <Supplier>
Chembridge

> <Suplier_CAT#>
5733637

> <Name>
Novel

> <Sec_Name>
235_C05

> <Concentration_(mM)>
2.5

> <IC50_(µM)>
22

> <Yeast_Active?>
-

> <Pubchem_CID>
6401602

$$$$
