
  -ISIS-  08130814242D

 19 20  0  0  0  0  0  0  0  0999 V2000
    7.2125   -0.7542    0.0000 N   0  3  0  0  0  0  0  0  0  0  0  0
    6.3917   -0.7500    0.0000 C   0  0  0  0  0  0  0  0  0  0  0  0
    5.1500   -0.0292    0.0000 N   0  0  0  0  0  0  0  0  0  0  0  0
    7.6292   -1.4667    0.0000 O   0  5  0  0  0  0  0  0  0  0  0  0
    4.7375   -0.7542    0.0000 C   0  0  0  0  0  0  0  0  0  0  0  0
    2.9167   -0.7375    0.0000 C   0  0  0  0  0  0  0  0  0  0  0  0
    7.6167   -0.0292    0.0000 O   0  0  0  0  0  0  0  0  0  0  0  0
    5.9750   -0.0292    0.0000 C   0  0  0  0  0  0  0  0  0  0  0  0
    4.0292   -0.7542    0.0000 N   0  0  0  0  0  0  0  0  0  0  0  0
    3.4625   -0.4417    0.0000 C   0  0  0  0  0  0  0  0  0  0  0  0
    5.9792   -1.4667    0.0000 C   0  0  0  0  0  0  0  0  0  0  0  0
    2.9167   -1.4417    0.0000 C   0  0  0  0  0  0  0  0  0  0  0  0
    5.1542   -1.4667    0.0000 C   0  0  0  0  0  0  0  0  0  0  0  0
    3.5167   -1.7542    0.0000 O   0  0  0  0  0  0  0  0  0  0  0  0
    2.3167   -0.3875    0.0000 C   0  0  0  0  0  0  0  0  0  0  0  0
    2.3167   -1.7875    0.0000 C   0  0  0  0  0  0  0  0  0  0  0  0
    3.5167   -2.6750    0.0000 C   0  0  0  0  0  0  0  0  0  0  0  0
    1.7125   -0.7375    0.0000 C   0  0  0  0  0  0  0  0  0  0  0  0
    1.7125   -1.4417    0.0000 C   0  0  0  0  0  0  0  0  0  0  0  0
  2  1  1  0  0  0  0
  3  8  1  0  0  0  0
  4  1  1  0  0  0  0
  5 13  1  0  0  0  0
  6 10  1  0  0  0  0
  7  1  2  0  0  0  0
  8  2  2  0  0  0  0
  9  5  1  0  0  0  0
 10  9  1  0  0  0  0
 11  2  1  0  0  0  0
 12  6  2  0  0  0  0
 13 11  2  0  0  0  0
 14 12  1  0  0  0  0
 15  6  1  0  0  0  0
 16 12  1  0  0  0  0
 17 14  1  0  0  0  0
 18 15  2  0  0  0  0
 19 18  1  0  0  0  0
  3  5  2  0  0  0  0
 19 16  2  0  0  0  0
M  CHG  2   1   1   4  -1
M  END
> <#>
1762

> <PLATE>
LAT023

> <ROW>
B

> <COL>
2

> <COORD>
B02

> <LATID>
LAT023B02

> <Supplier>
Chembridge

> <Suplier_CAT#>
5482360

> <Name>
Mopyramine

> <Sec_Name>
140_E06

> <Concentration_(mM)>
2.5

> <IC50_(µM)>
0.7

> <Yeast_Active?>
-

> <Pubchem_CID>
2848687

$$$$
