
  -ISIS-  08130814242D

 31 35  0  0  0  0  0  0  0  0999 V2000
    1.4042   -1.2167    0.0000 N   0  0  3  0  0  0  0  0  0  0  0  0
    2.0667   -1.0292    0.0000 C   0  0  0  0  0  0  0  0  0  0  0  0
    2.5792   -1.4667    0.0000 C   0  0  0  0  0  0  0  0  0  0  0  0
    2.3167   -0.4000    0.0000 C   0  0  0  0  0  0  0  0  0  0  0  0
    1.2542   -1.8375    0.0000 C   0  0  0  0  0  0  0  0  0  0  0  0
    3.0167   -0.4375    0.0000 N   0  0  3  0  0  0  0  0  0  0  0  0
    3.1875   -1.1000    0.0000 N   0  0  3  0  0  0  0  0  0  0  0  0
    0.8875   -0.7542    0.0000 C   0  0  0  0  0  0  0  0  0  0  0  0
    0.3792   -1.1792    0.0000 C   0  0  0  0  0  0  0  0  0  0  0  0
    0.5500   -1.8375    0.0000 S   0  0  0  0  0  0  0  0  0  0  0  0
   -0.2625   -0.9000    0.0000 C   0  0  0  0  0  0  0  0  0  0  0  0
    1.6542   -2.4500    0.0000 S   0  0  0  0  0  0  0  0  0  0  0  0
   -1.3000   -2.4000    0.0000 C   0  0  0  0  0  0  0  0  0  0  0  0
    2.4792   -2.1500    0.0000 O   0  0  0  0  0  0  0  0  0  0  0  0
    3.8292   -1.3167    0.0000 C   0  0  0  0  0  0  0  0  0  0  0  0
   -1.9333   -2.1042    0.0000 C   0  0  0  0  0  0  0  0  0  0  0  0
    0.8792   -0.0667    0.0000 O   0  0  0  0  0  0  0  0  0  0  0  0
   -1.3833   -3.0792    0.0000 O   0  0  0  0  0  0  0  0  0  0  0  0
   -0.8125   -1.3000    0.0000 C   0  0  0  0  0  0  0  0  0  0  0  0
   -2.3958   -2.6042    0.0000 O   0  0  0  0  0  0  0  0  0  0  0  0
   -2.0458   -3.1875    0.0000 C   0  0  0  0  0  0  0  0  0  0  0  0
   -0.7500   -1.9875    0.0000 C   0  0  0  0  0  0  0  0  0  0  0  0
   -2.0000   -1.4042    0.0000 C   0  0  0  0  0  0  0  0  0  0  0  0
    3.4542    0.0833    0.0000 C   0  0  0  0  0  0  0  0  0  0  0  0
    1.9292    0.1625    0.0000 C   0  0  0  0  0  0  0  0  0  0  0  0
   -1.4333   -1.0167    0.0000 C   0  0  0  0  0  0  0  0  0  0  0  0
    4.3542   -0.8792    0.0000 C   0  0  0  0  0  0  0  0  0  0  0  0
    3.9500   -1.9875    0.0000 C   0  0  0  0  0  0  0  0  0  0  0  0
    4.5875   -2.2292    0.0000 C   0  0  0  0  0  0  0  0  0  0  0  0
    5.0167   -1.1000    0.0000 C   0  0  0  0  0  0  0  0  0  0  0  0
    5.1292   -1.7792    0.0000 C   0  0  0  0  0  0  0  0  0  0  0  0
  2  1  1  0  0  0  0
  3  2  1  0  0  0  0
  4  2  2  0  0  0  0
  5  1  1  0  0  0  0
  6  4  1  0  0  0  0
  7  3  1  0  0  0  0
  8  1  1  0  0  0  0
  9  8  1  0  0  0  0
 10  5  1  0  0  0  0
 11  9  2  0  0  0  0
 12  5  2  0  0  0  0
 13 22  1  0  0  0  0
 14  3  2  0  0  0  0
 15  7  1  0  0  0  0
 16 23  1  0  0  0  0
 17  8  2  0  0  0  0
 18 13  1  0  0  0  0
 19 11  1  0  0  0  0
 20 16  1  0  0  0  0
 21 18  1  0  0  0  0
 22 19  2  0  0  0  0
 23 26  2  0  0  0  0
 24  6  1  0  0  0  0
 25  4  1  0  0  0  0
 26 19  1  0  0  0  0
 27 15  2  0  0  0  0
 28 15  1  0  0  0  0
 29 28  2  0  0  0  0
 30 27  1  0  0  0  0
 31 29  1  0  0  0  0
 10  9  1  0  0  0  0
  7  6  1  0  0  0  0
 13 16  2  0  0  0  0
 31 30  2  0  0  0  0
 20 21  1  0  0  0  0
M  END
> <#>
1007

> <PLATE>
LAT013

> <ROW>
G

> <COL>
7

> <COORD>
G07

> <LATID>
LAT013G07

> <Supplier>
Chembridge

> <Suplier_CAT#>
5538127

> <Name>
Novel

> <Sec_Name>
158_H05

> <Concentration_(mM)>
2.5

> <IC50_(µM)>
23

> <Yeast_Active?>
-

> <Pubchem_CID>
1720863

$$$$
