
  -ISIS-  08130814242D

 23 25  0  0  0  0  0  0  0  0999 V2000
    5.3375   -3.5292    0.0000 C   0  0  3  0  0  0  0  0  0  0  0  0
    5.6917   -4.1917    0.0000 C   0  0  0  0  0  0  0  0  0  0  0  0
    4.6000   -3.6542    0.0000 C   0  0  0  0  0  0  0  0  0  0  0  0
    5.1667   -4.7292    0.0000 N   0  0  3  0  0  0  0  0  0  0  0  0
    4.4917   -4.4000    0.0000 C   0  0  0  0  0  0  0  0  0  0  0  0
    6.1792   -2.9542    0.0000 C   0  0  0  0  0  0  0  0  0  0  0  0
    6.9042   -3.3292    0.0000 C   0  0  0  0  0  0  0  0  0  0  0  0
    7.5375   -2.9292    0.0000 C   0  0  0  0  0  0  0  0  0  0  0  0
    3.8000   -4.6792    0.0000 C   0  0  0  0  0  0  0  0  0  0  0  0
    4.0125   -3.1917    0.0000 C   0  0  0  0  0  0  0  0  0  0  0  0
    6.4292   -4.2917    0.0000 O   0  0  0  0  0  0  0  0  0  0  0  0
    8.2000   -3.2750    0.0000 C   0  0  0  0  0  0  0  0  0  0  0  0
    6.9292   -3.9542    0.0000 O   0  0  0  0  0  0  0  0  0  0  0  0
    5.1000   -2.6750    0.0000 O   0  0  0  0  0  0  0  0  0  0  0  0
    3.3167   -3.4667    0.0000 C   0  0  0  0  0  0  0  0  0  0  0  0
    5.2917   -5.4667    0.0000 C   0  0  0  0  0  0  0  0  0  0  0  0
    3.2042   -4.2167    0.0000 C   0  0  0  0  0  0  0  0  0  0  0  0
    2.7250   -3.0042    0.0000 Br  0  0  0  0  0  0  0  0  0  0  0  0
    8.2292   -4.0250    0.0000 O   0  0  0  0  0  0  0  0  0  0  0  0
    7.5042   -2.1792    0.0000 C   0  0  0  0  0  0  0  0  0  0  0  0
    8.8292   -2.8667    0.0000 C   0  0  0  0  0  0  0  0  0  0  0  0
    8.1292   -1.7750    0.0000 C   0  0  0  0  0  0  0  0  0  0  0  0
    8.8000   -2.1167    0.0000 C   0  0  0  0  0  0  0  0  0  0  0  0
  2  1  1  0  0  0  0
  3  1  1  0  0  0  0
  4  2  1  0  0  0  0
  5  3  2  0  0  0  0
  6  1  1  0  0  0  0
  7  6  1  0  0  0  0
  8  7  1  0  0  0  0
  9  5  1  0  0  0  0
 10  3  1  0  0  0  0
 11  2  2  0  0  0  0
 12  8  1  0  0  0  0
 13  7  2  0  0  0  0
 14  1  1  0  0  0  0
 15 10  2  0  0  0  0
 16  4  1  0  0  0  0
 17 15  1  0  0  0  0
 18 15  1  0  0  0  0
 19 12  1  0  0  0  0
 20  8  2  0  0  0  0
 21 12  2  0  0  0  0
 22 20  1  0  0  0  0
 23 22  2  0  0  0  0
  5  4  1  0  0  0  0
 17  9  2  0  0  0  0
 21 23  1  0  0  0  0
M  END
> <#>
1374

> <PLATE>
LAT018

> <ROW>
F

> <COL>
3

> <COORD>
F03

> <LATID>
LAT018F03

> <Supplier>
Chembridge

> <Suplier_CAT#>
7452816

> <Name>
Novel

> <Concentration_(mM)>
2.5

> <IC50_(µM)>
>100

> <Yeast_Active?>
-

> <Pubchem_CID>
1309177

$$$$
