
  -ISIS-  08130814242D

 21 23  0  0  0  0  0  0  0  0999 V2000
   -3.0500    0.4125    0.0000 C   0  0  0  0  0  0  0  0  0  0  0  0
   -3.0500   -0.3667    0.0000 C   0  0  0  0  0  0  0  0  0  0  0  0
   -1.6958    0.4125    0.0000 C   0  0  0  0  0  0  0  0  0  0  0  0
   -3.7333    0.8125    0.0000 C   0  0  0  0  0  0  0  0  0  0  0  0
   -3.7333   -0.7667    0.0000 C   0  0  0  0  0  0  0  0  0  0  0  0
   -2.3708    0.8125    0.0000 C   0  0  0  0  0  0  0  0  0  0  0  0
   -1.0125    0.7958    0.0000 N   0  3  0  0  0  0  0  0  0  0  0  0
   -2.3708   -0.7667    0.0000 C   0  0  0  0  0  0  0  0  0  0  0  0
   -1.6958   -0.3667    0.0000 C   0  0  0  0  0  0  0  0  0  0  0  0
   -4.4125   -0.3667    0.0000 C   0  0  0  0  0  0  0  0  0  0  0  0
   -4.4125    0.4125    0.0000 C   0  0  0  0  0  0  0  0  0  0  0  0
   -0.3458    0.4000    0.0000 O   0  5  0  0  0  0  0  0  0  0  0  0
   -3.7333   -1.5667    0.0000 O   0  0  0  0  0  0  0  0  0  0  0  0
   -3.7333    1.5958    0.0000 O   0  0  0  0  0  0  0  0  0  0  0  0
   -1.0125    1.5625    0.0000 O   0  0  0  0  0  0  0  0  0  0  0  0
   -2.3708    1.5958    0.0000 O   0  0  0  0  0  0  0  0  0  0  0  0
   -2.3708   -1.5667    0.0000 O   0  0  0  0  0  0  0  0  0  0  0  0
   -5.0958   -0.7667    0.0000 C   0  0  0  0  0  0  0  0  0  0  0  0
   -5.0958    0.8125    0.0000 C   0  0  0  0  0  0  0  0  0  0  0  0
   -5.7708    0.4125    0.0000 C   0  0  0  0  0  0  0  0  0  0  0  0
   -5.7708   -0.3667    0.0000 C   0  0  0  0  0  0  0  0  0  0  0  0
  2  1  2  0  0  0  0
  3  6  2  0  0  0  0
  4  1  1  0  0  0  0
  5  2  1  0  0  0  0
  6  1  1  0  0  0  0
  7  3  1  0  0  0  0
  8  2  1  0  0  0  0
  9  3  1  0  0  0  0
 10 11  2  0  0  0  0
 11  4  1  0  0  0  0
 12  7  1  0  0  0  0
 13  5  2  0  0  0  0
 14  4  2  0  0  0  0
 15  7  2  0  0  0  0
 16  6  1  0  0  0  0
 17  8  1  0  0  0  0
 18 10  1  0  0  0  0
 19 11  1  0  0  0  0
 20 19  2  0  0  0  0
 21 20  1  0  0  0  0
  9  8  2  0  0  0  0
 10  5  1  0  0  0  0
 21 18  2  0  0  0  0
M  CHG  2   7   1  12  -1
M  END
> <#>
1115

> <PLATE>
LAT014

> <ROW>
C

> <COL>
11

> <COORD>
C11

> <LATID>
LAT014C11

> <Supplier>
Chembridge

> <Suplier_CAT#>
5302794

> <Name>
Novel

> <Concentration_(mM)>
2.5

> <IC50_(µM)>
>100

> <Yeast_Active?>
+

> <Pubchem_CID>
NULL

$$$$
