
  -ISIS-  08130814242D

 25 26  0  0  0  0  0  0  0  0999 V2000
    1.5250    1.6750    0.0000 C   0  0  0  0  0  0  0  0  0  0  0  0
   -0.7250    0.3750    0.0000 C   0  0  0  0  0  0  0  0  0  0  0  0
    0.4000    1.0250    0.0000 O   0  0  0  0  0  0  0  0  0  0  0  0
    0.0250    0.3750    0.0000 C   0  0  0  0  0  0  0  0  0  0  0  0
   -3.3500    2.3333    0.0000 N   0  0  0  0  0  0  0  0  0  0  0  0
    1.1500    1.0250    0.0000 C   0  0  0  0  0  0  0  0  0  0  0  0
    2.2750    1.6750    0.0000 C   0  0  0  0  0  0  0  0  0  0  0  0
   -1.8500    1.0250    0.0000 N   0  0  0  0  0  0  0  0  0  0  0  0
   -2.9750    1.6750    0.0000 C   0  0  0  0  0  0  0  0  0  0  0  0
    2.6500    1.0250    0.0000 F   0  0  0  0  0  0  0  0  0  0  0  0
   -1.1000    1.0250    0.0000 C   0  0  0  0  0  0  0  0  0  0  0  0
   -2.2250    1.6750    0.0000 C   0  0  0  0  0  0  0  0  0  0  0  0
    1.1500    2.3333    0.0000 C   0  0  0  0  0  0  0  0  0  0  0  0
   -1.1000   -0.2750    0.0000 C   0  0  0  0  0  0  0  0  0  0  0  0
   -4.1000    2.3333    0.0000 C   0  0  0  0  0  0  0  0  0  0  0  0
    0.4000   -0.2750    0.0000 C   0  0  0  0  0  0  0  0  0  0  0  0
    2.6500    2.3333    0.0000 C   0  0  0  0  0  0  0  0  0  0  0  0
   -3.3500    1.0250    0.0000 C   0  0  0  0  0  0  0  0  0  0  0  0
   -4.4750    1.6750    0.0000 C   0  0  0  0  0  0  0  0  0  0  0  0
    1.5250    2.9833    0.0000 C   0  0  0  0  0  0  0  0  0  0  0  0
   -0.7250   -0.9250    0.0000 C   0  0  0  0  0  0  0  0  0  0  0  0
    0.0250   -0.9250    0.0000 C   0  0  0  0  0  0  0  0  0  0  0  0
    2.2750    2.9833    0.0000 C   0  0  0  0  0  0  0  0  0  0  0  0
   -4.1000    1.0250    0.0000 C   0  0  0  0  0  0  0  0  0  0  0  0
    3.4000   -0.9250    0.0000 Cl  0  0  0  0  0  0  0  0  0  0  0  0
  2  4  2  0  0  0  0
  3  6  1  0  0  0  0
  4  3  1  0  0  0  0
  5  9  2  0  0  0  0
  6  1  1  0  0  0  0
  7  1  2  0  0  0  0
  8 11  1  0  0  0  0
  9 12  1  0  0  0  0
 10  7  1  0  0  0  0
 11  2  1  0  0  0  0
 12  8  1  0  0  0  0
 13  1  1  0  0  0  0
 14  2  1  0  0  0  0
 15  5  1  0  0  0  0
 16  4  1  0  0  0  0
 17  7  1  0  0  0  0
 18  9  1  0  0  0  0
 19 24  1  0  0  0  0
 20 13  2  0  0  0  0
 21 22  1  0  0  0  0
 22 16  2  0  0  0  0
 23 20  1  0  0  0  0
 24 18  2  0  0  0  0
 23 17  2  0  0  0  0
 21 14  2  0  0  0  0
 19 15  2  0  0  0  0
M  END
> <#>
1458

> <PLATE>
LAT019

> <ROW>
B

> <COL>
4

> <COORD>
B04

> <LATID>
LAT019B04

> <Supplier>
Chembridge

> <Suplier_CAT#>
9028411

> <Name>
Novel

> <Concentration_(mM)>
2.5

> <IC50_(µM)>
inactive

> <Yeast_Active?>
-

> <Pubchem_CID>
4720372

$$$$
