
  -ISIS-  08130814242D

 24 26  0  0  0  0  0  0  0  0999 V2000
    5.7292   -1.6792    0.0000 C   0  0  0  0  0  0  0  0  0  0  0  0
    6.0375   -2.3542    0.0000 N   0  3  0  0  0  0  0  0  0  0  0  0
    5.0000   -1.5167    0.0000 S   0  0  0  0  0  0  0  0  0  0  0  0
    6.1042   -1.0292    0.0000 C   0  0  0  0  0  0  0  0  0  0  0  0
    4.9167   -0.7667    0.0000 C   0  0  0  0  0  0  0  0  0  0  0  0
    1.0292   -0.7667    0.0000 C   0  0  0  0  0  0  0  0  0  0  0  0
    3.6167   -0.7667    0.0000 N   0  0  0  0  0  0  0  0  0  0  0  0
    5.6042   -0.4667    0.0000 C   0  0  0  0  0  0  0  0  0  0  0  0
    2.3167   -0.7667    0.0000 C   0  0  0  0  0  0  0  0  0  0  0  0
    5.6000   -2.9667    0.0000 O   0  5  0  0  0  0  0  0  0  0  0  0
    1.0292   -1.5167    0.0000 C   0  0  0  0  0  0  0  0  0  0  0  0
    6.7875   -2.4375    0.0000 O   0  0  0  0  0  0  0  0  0  0  0  0
    4.2667   -0.4000    0.0000 C   0  0  0  0  0  0  0  0  0  0  0  0
    1.6667   -0.4000    0.0000 C   0  0  0  0  0  0  0  0  0  0  0  0
    2.9667   -0.4000    0.0000 N   0  0  0  0  0  0  0  0  0  0  0  0
    2.3167   -1.5167    0.0000 O   0  0  0  0  0  0  0  0  0  0  0  0
    0.3792   -1.9000    0.0000 C   0  0  0  0  0  0  0  0  0  0  0  0
    0.3792   -0.4000    0.0000 C   0  0  0  0  0  0  0  0  0  0  0  0
   -0.2625   -0.7667    0.0000 C   0  0  0  0  0  0  0  0  0  0  0  0
    1.6667   -1.9000    0.0000 C   0  0  0  0  0  0  0  0  0  0  0  0
   -0.2625   -1.5167    0.0000 C   0  0  0  0  0  0  0  0  0  0  0  0
    0.3792   -2.6500    0.0000 C   0  0  0  0  0  0  0  0  0  0  0  0
    1.6667   -2.6500    0.0000 C   0  0  0  0  0  0  0  0  0  0  0  0
    1.0292   -3.0167    0.0000 C   0  0  0  0  0  0  0  0  0  0  0  0
  2  1  1  0  0  0  0
  3  1  1  0  0  0  0
  4  1  2  0  0  0  0
  5  3  1  0  0  0  0
  6 14  1  0  0  0  0
  7 13  2  0  0  0  0
  8  4  1  0  0  0  0
  9 15  1  0  0  0  0
 10  2  1  0  0  0  0
 11  6  2  0  0  0  0
 12  2  2  0  0  0  0
 13  5  1  0  0  0  0
 14  9  1  0  0  0  0
 15  7  1  0  0  0  0
 16  9  2  0  0  0  0
 17 11  1  0  0  0  0
 18  6  1  0  0  0  0
 19 18  2  0  0  0  0
 20 11  1  0  0  0  0
 21 19  1  0  0  0  0
 22 17  1  0  0  0  0
 23 20  2  0  0  0  0
 24 23  1  0  0  0  0
  8  5  2  0  0  0  0
 21 17  2  0  0  0  0
 22 24  2  0  0  0  0
M  CHG  2   2   1  10  -1
M  END
> <#>
1795

> <PLATE>
LAT023

> <ROW>
C

> <COL>
6

> <COORD>
C06

> <LATID>
LAT023C06

> <Supplier>
Chembridge

> <Suplier_CAT#>
5571623

> <Name>
Novel

> <Sec_Name>
176_C05

> <Concentration_(mM)>
2.5

> <IC50_(µM)>
>100

> <Yeast_Active?>
-

> <Pubchem_CID>
870279

$$$$
