
  -ISIS-  08130814242D

 17 18  0  0  0  0  0  0  0  0999 V2000
    4.9281   -1.8740    0.0000 C   0  0  0  0  0  0  0  0  0  0  0  0
    3.8456   -1.2490    0.0000 C   0  0  0  0  0  0  0  0  0  0  0  0
    3.8456    0.0010    0.0000 O   0  0  0  0  0  0  0  0  0  0  0  0
    2.7631   -1.8740    0.0000 C   0  0  0  0  0  0  0  0  0  0  0  0
    2.7631   -3.1240    0.0000 C   0  0  0  0  0  0  0  0  0  0  0  0
    1.6805   -3.7490    0.0000 C   0  0  0  0  0  0  0  0  0  0  0  0
    0.5980   -3.1240    0.0000 C   0  0  0  0  0  0  0  0  0  0  0  0
    0.5980   -1.8740    0.0000 C   0  0  0  0  0  0  0  0  0  0  0  0
    1.6805   -1.2490    0.0000 C   0  0  0  0  0  0  0  0  0  0  0  0
    6.0107   -1.2490    0.0000 C   0  0  0  0  0  0  0  0  0  0  0  0
    7.0932   -1.8740    0.0000 C   0  0  0  0  0  0  0  0  0  0  0  0
    8.1757   -1.2490    0.0000 C   0  0  0  0  0  0  0  0  0  0  0  0
    9.2583   -1.8740    0.0000 C   0  0  0  0  0  0  0  0  0  0  0  0
    9.2583   -3.1240    0.0000 C   0  0  0  0  0  0  0  0  0  0  0  0
    8.1757   -3.7490    0.0000 C   0  0  0  0  0  0  0  0  0  0  0  0
    7.0932   -3.1240    0.0000 C   0  0  0  0  0  0  0  0  0  0  0  0
    8.1757    0.0010    0.0000 O   0  0  0  0  0  0  0  0  0  0  0  0
  1  2  1  0  0  0  0
  2  3  2  0  0  0  0
  2  4  1  0  0  0  0
  4  5  1  0  0  0  0
  5  6  2  0  0  0  0
  6  7  1  0  0  0  0
  7  8  2  0  0  0  0
  8  9  1  0  0  0  0
  4  9  2  0  0  0  0
  1 10  2  0  0  0  0
 10 11  1  0  0  0  0
 11 12  1  0  0  0  0
 12 13  2  0  0  0  0
 13 14  1  0  0  0  0
 14 15  2  0  0  0  0
 15 16  1  0  0  0  0
 11 16  2  0  0  0  0
 12 17  1  0  0  0  0
M  END
> <#>
364

> <PLATE>
LAT005

> <ROW>
D

> <COL>
7

> <COORD>
D07

> <LATID>
LAT005D07

> <Supplier>
Aldrich

> <Suplier_CAT#>
51,306-7

> <Name>
2-Hydroxychalcone

> <Concentration_(mM)>
2.5

> <IC50_(µM)>
79

> <Yeast_Active?>
+

> <Pubchem_CID>
97765

$$$$
