
  -ISIS-  08130814242D

 16 16  0  0  0  0  0  0  0  0999 V2000
    4.1255    1.4287    0.0000 C   0  0  0  0  0  0  0  0  0  0  0  0
    3.0393    0.8100    0.0000 C   0  0  3  0  0  0  0  0  0  0  0  0
    2.4207    1.8962    0.0000 C   0  0  0  0  0  0  0  0  0  0  0  0
    3.6580   -0.2762    0.0000 C   0  0  0  0  0  0  0  0  0  0  0  0
    4.2766   -1.3623    0.0000 C   0  0  0  0  0  0  0  0  0  0  0  0
    1.9532    0.1914    0.0000 N   0  0  0  0  0  0  0  0  0  0  0  0
    0.8743    0.8227    0.0000 C   0  0  0  0  0  0  0  0  0  0  0  0
    0.8817    2.0727    0.0000 O   0  0  0  0  0  0  0  0  0  0  0  0
   -0.2119    0.2041    0.0000 C   0  0  0  0  0  0  0  0  0  0  0  0
   -1.2907    0.8355    0.0000 C   0  0  0  0  0  0  0  0  0  0  0  0
   -2.3769    0.2168    0.0000 C   0  0  0  0  0  0  0  0  0  0  0  0
   -2.3842   -1.0331    0.0000 C   0  0  0  0  0  0  0  0  0  0  0  0
   -1.3054   -1.6645    0.0000 C   0  0  0  0  0  0  0  0  0  0  0  0
   -0.2192   -1.0459    0.0000 C   0  0  0  0  0  0  0  0  0  0  0  0
   -1.3127   -2.9145    0.0000 Cl  0  0  0  0  0  0  0  0  0  0  0  0
   -3.4557    0.8482    0.0000 Cl  0  0  0  0  0  0  0  0  0  0  0  0
  1  2  1  0  0  0  0
  2  3  1  0  0  0  0
  2  4  1  0  0  0  0
  4  5  3  0  0  0  0
  2  6  1  0  0  0  0
  6  7  1  0  0  0  0
  7  8  2  0  0  0  0
  7  9  1  0  0  0  0
  9 10  2  0  0  0  0
 10 11  1  0  0  0  0
 11 12  2  0  0  0  0
 12 13  1  0  0  0  0
 13 14  2  0  0  0  0
  9 14  1  0  0  0  0
 13 15  1  0  0  0  0
 11 16  1  0  0  0  0
M  END
> <#>
430

> <PLATE>
LAT006

> <ROW>
F

> <COL>
5

> <COORD>
F05

> <LATID>
LAT006F05

> <Supplier>
Suppelco

> <Suplier_CAT#>
442764

> <Name>
Pronamide

> <Concentration_(mM)>
2.5

> <IC50_(µM)>
2.4

> <Yeast_Active?>
-

> <Pubchem_CID>
32154

> <Description>
Herbicide

> <Comment>
Targets Microtubules

> <LATCA_Notes>
Same compound as Propyzamide

$$$$
