
  -ISIS-  08130814242D

 22 23  0  0  0  0  0  0  0  0999 V2000
    2.9292   -1.1875    0.0000 C   0  0  0  0  0  0  0  0  0  0  0  0
    3.5792   -2.3167    0.0000 N   0  0  0  0  0  0  0  0  0  0  0  0
    3.5792   -1.5667    0.0000 N   0  0  0  0  0  0  0  0  0  0  0  0
    2.2792   -1.5667    0.0000 O   0  0  0  0  0  0  0  0  0  0  0  0
    2.9292   -0.4375    0.0000 C   0  0  0  0  0  0  0  0  0  0  0  0
    4.2292   -2.6875    0.0000 C   0  0  0  0  0  0  0  0  0  0  0  0
    2.2875   -0.0667    0.0000 O   0  0  0  0  0  0  0  0  0  0  0  0
    1.6375   -0.4375    0.0000 C   0  0  0  0  0  0  0  0  0  0  0  0
    5.5292   -2.6875    0.0000 C   0  0  0  0  0  0  0  0  0  0  0  0
    4.8792   -2.3167    0.0000 C   0  0  0  0  0  0  0  0  0  0  0  0
    6.1792   -2.3167    0.0000 C   0  0  0  0  0  0  0  0  0  0  0  0
    0.3292   -1.2000    0.0000 C   0  0  0  0  0  0  0  0  0  0  0  0
    1.6375   -1.2000    0.0000 C   0  0  0  0  0  0  0  0  0  0  0  0
    0.9792   -0.0542    0.0000 C   0  0  0  0  0  0  0  0  0  0  0  0
    0.9792   -1.5667    0.0000 C   0  0  0  0  0  0  0  0  0  0  0  0
    0.3292   -0.4375    0.0000 C   0  0  0  0  0  0  0  0  0  0  0  0
    6.8292   -2.7000    0.0000 O   0  0  0  0  0  0  0  0  0  0  0  0
    5.5292   -1.1875    0.0000 C   0  0  0  0  0  0  0  0  0  0  0  0
    4.8792   -1.5667    0.0000 C   0  0  0  0  0  0  0  0  0  0  0  0
    6.1792   -1.5667    0.0000 C   0  0  0  0  0  0  0  0  0  0  0  0
   -0.3125   -1.5667    0.0000 C   0  0  0  0  0  0  0  0  0  0  0  0
    6.8292   -3.4500    0.0000 C   0  0  0  0  0  0  0  0  0  0  0  0
  2  3  1  0  0  0  0
  3  1  1  0  0  0  0
  4  1  2  0  0  0  0
  5  1  1  0  0  0  0
  6  2  2  0  0  0  0
  7  5  1  0  0  0  0
  8  7  1  0  0  0  0
  9 10  1  0  0  0  0
 10  6  1  0  0  0  0
 11  9  2  0  0  0  0
 12 16  1  0  0  0  0
 13  8  2  0  0  0  0
 14  8  1  0  0  0  0
 15 13  1  0  0  0  0
 16 14  2  0  0  0  0
 17 11  1  0  0  0  0
 18 19  1  0  0  0  0
 19 10  2  0  0  0  0
 20 18  2  0  0  0  0
 21 12  1  0  0  0  0
 22 17  1  0  0  0  0
 12 15  2  0  0  0  0
 20 11  1  0  0  0  0
M  END
> <#>
585

> <PLATE>
LAT008

> <ROW>
A

> <COL>
5

> <COORD>
A05

> <LATID>
LAT008A05

> <Supplier>
Chembridge

> <Suplier_CAT#>
5468162

> <Name>
Novel

> <Sec_Name>
132_B11

> <Concentration_(mM)>
2.5

> <IC50_(µM)>
21

> <Yeast_Active?>
-

> <Pubchem_CID>
867159

$$$$
