
  -ISIS-  08130814242D

 17 17  0  0  0  0  0  0  0  0999 V2000
    6.1000   -2.6625    0.0000 S   0  0  3  0  0  0  0  0  0  0  0  0
    8.9500   -3.4750    0.0000 N   0  0  0  0  0  0  0  0  0  0  0  0
    8.2375   -3.0667    0.0000 C   0  0  0  0  0  0  0  0  0  0  0  0
    5.3875   -3.0750    0.0000 C   0  0  0  0  0  0  0  0  0  0  0  0
    6.8125   -3.0667    0.0000 C   0  0  0  0  0  0  0  0  0  0  0  0
    7.5250   -2.6542    0.0000 C   0  0  0  0  0  0  0  0  0  0  0  0
    5.3792   -2.2500    0.0000 O   0  0  0  0  0  0  0  0  0  0  0  0
    6.6792   -2.0750    0.0000 O   0  0  0  0  0  0  0  0  0  0  0  0
    3.2417   -4.3125    0.0000 C   0  0  3  0  0  0  0  0  0  0  0  0
    3.9583   -3.9042    0.0000 C   0  0  0  0  0  0  0  0  0  0  0  0
    5.3875   -3.9042    0.0000 C   0  0  0  0  0  0  0  0  0  0  0  0
    4.6708   -2.6625    0.0000 C   0  0  0  0  0  0  0  0  0  0  0  0
    4.6708   -4.3167    0.0000 C   0  0  0  0  0  0  0  0  0  0  0  0
    3.9583   -3.0750    0.0000 C   0  0  0  0  0  0  0  0  0  0  0  0
    2.6542   -3.7250    0.0000 C   0  0  0  0  0  0  0  0  0  0  0  0
    2.5250   -4.7167    0.0000 C   0  0  0  0  0  0  0  0  0  0  0  0
    3.2375   -5.1375    0.0000 C   0  0  0  0  0  0  0  0  0  0  0  0
  2  3  3  0  0  0  0
  3  6  1  0  0  0  0
  4  1  1  0  0  0  0
  5  1  1  0  0  0  0
  6  5  2  0  0  0  0
  7  1  2  0  0  0  0
  8  1  2  0  0  0  0
  9 10  1  0  0  0  0
 10 14  2  0  0  0  0
 11  4  1  0  0  0  0
 12  4  2  0  0  0  0
 13 11  2  0  0  0  0
 14 12  1  0  0  0  0
 15  9  1  0  0  0  0
 16  9  1  0  0  0  0
 17  9  1  0  0  0  0
 10 13  1  0  0  0  0
M  END
> <#>
204

> <PLATE>
LAT003

> <ROW>
D

> <COL>
7

> <COORD>
D07

> <LATID>
LAT003D07

> <Supplier>
Sigma

> <Suplier_CAT#>
B 5681

> <Name>
Bay 11-7085

> <Concentration_(mM)>
2.5

> <IC50_(µM)>
23

> <Yeast_Active?>
+

> <Pubchem_CID>
2302

> <Description>
Inhibits cytokine induced IkB (Inhibitor of NFkB) phosphorylation

$$$$
