
  -ISIS-  08130814242D

 21 22  0  0  0  0  0  0  0  0999 V2000
    9.5292    1.2583    0.0000 C   0  0  0  0  0  0  0  0  0  0  0  0
    8.8792    0.8833    0.0000 N   0  0  0  0  0  0  0  0  0  0  0  0
   10.1792    0.8833    0.0000 C   0  0  3  0  0  0  0  0  0  0  0  0
   10.8292    1.2583    0.0000 O   0  0  0  0  0  0  0  0  0  0  0  0
    6.9375    1.2583    0.0000 N   0  0  0  0  0  0  0  0  0  0  0  0
    9.5292    2.0083    0.0000 O   0  0  0  0  0  0  0  0  0  0  0  0
   11.4792    0.8833    0.0000 C   0  0  0  0  0  0  0  0  0  0  0  0
    8.2292    1.2583    0.0000 C   0  0  0  0  0  0  0  0  0  0  0  0
    7.5792    0.8833    0.0000 C   0  0  0  0  0  0  0  0  0  0  0  0
   12.7792    0.1333    0.0000 C   0  0  0  0  0  0  0  0  0  0  0  0
   13.4292   -0.2417    0.0000 Cl  0  0  0  0  0  0  0  0  0  0  0  0
   12.1292    1.2583    0.0000 C   0  0  0  0  0  0  0  0  0  0  0  0
   11.4792    0.1333    0.0000 C   0  0  0  0  0  0  0  0  0  0  0  0
   12.1292   -0.2417    0.0000 C   0  0  0  0  0  0  0  0  0  0  0  0
   12.7792    0.8833    0.0000 C   0  0  0  0  0  0  0  0  0  0  0  0
    6.2875    0.8833    0.0000 C   0  0  0  0  0  0  0  0  0  0  0  0
   10.1792    0.1333    0.0000 C   0  0  0  0  0  0  0  0  0  0  0  0
    7.5792    0.1333    0.0000 C   0  0  0  0  0  0  0  0  0  0  0  0
   10.8292   -0.2417    0.0000 C   0  0  0  0  0  0  0  0  0  0  0  0
    6.2875    0.1333    0.0000 C   0  0  0  0  0  0  0  0  0  0  0  0
    6.9375   -0.2417    0.0000 C   0  0  0  0  0  0  0  0  0  0  0  0
  2  1  1  0  0  0  0
  3  1  1  0  0  0  0
  4  3  1  0  0  0  0
  5  9  1  0  0  0  0
  6  1  2  0  0  0  0
  7  4  1  0  0  0  0
  8  2  1  0  0  0  0
  9  8  1  0  0  0  0
 10 14  2  0  0  0  0
 11 10  1  0  0  0  0
 12  7  1  0  0  0  0
 13  7  2  0  0  0  0
 14 13  1  0  0  0  0
 15 12  2  0  0  0  0
 16  5  2  0  0  0  0
 17  3  1  0  0  0  0
 18  9  2  0  0  0  0
 19 17  1  0  0  0  0
 20 21  2  0  0  0  0
 21 18  1  0  0  0  0
 10 15  1  0  0  0  0
 20 16  1  0  0  0  0
M  END
> <#>
1422

> <PLATE>
LAT018

> <ROW>
F

> <COL>
9

> <COORD>
F09

> <LATID>
LAT018F09

> <Supplier>
Chembridge

> <Suplier_CAT#>
9062198

> <Name>
Novel

> <Concentration_(mM)>
2.5

> <IC50_(µM)>
>100

> <Yeast_Active?>
-

> <Pubchem_CID>
6472202

$$$$
