
  -ISIS-  08130814242D

 25 26  0  0  0  0  0  0  0  0999 V2000
   -2.4000   -0.0792    0.0000 C   0  0  0  0  0  0  0  0  0  0  0  0
   -3.3250    0.4667    0.0000 C   0  0  0  0  0  0  0  0  0  0  0  0
   -2.4000   -1.1333    0.0000 C   0  0  0  0  0  0  0  0  0  0  0  0
   -4.2792   -0.0333    0.0000 C   0  0  0  0  0  0  0  0  0  0  0  0
   -4.2792   -1.1083    0.0000 C   0  0  0  0  0  0  0  0  0  0  0  0
   -3.3792   -1.7083    0.0000 C   0  0  0  0  0  0  0  0  0  0  0  0
   -1.4417    0.4667    0.0000 O   0  0  0  0  0  0  0  0  0  0  0  0
    0.4417    0.4667    0.0000 C   0  0  0  0  0  0  0  0  0  0  0  0
    2.3333    0.4667    0.0000 N   0  0  0  0  0  0  0  0  0  0  0  0
    3.2958   -0.0792    0.0000 C   0  0  0  0  0  0  0  0  0  0  0  0
    1.4000   -0.0792    0.0000 N   0  0  0  0  0  0  0  0  0  0  0  0
    5.1750   -0.0792    0.0000 N   0  0  0  0  0  0  0  0  0  0  0  0
    0.4417    1.5667    0.0000 O   0  0  0  0  0  0  0  0  0  0  0  0
   -0.5042   -0.0792    0.0000 C   0  0  0  0  0  0  0  0  0  0  0  0
   -3.3250    1.5667    0.0000 Br  0  0  0  0  0  0  0  0  0  0  0  0
   -1.4208   -1.7083    0.0000 C   0  0  3  0  0  0  0  0  0  0  0  0
    4.2417    0.4667    0.0000 C   0  0  0  0  0  0  0  0  0  0  0  0
   -5.2417   -1.6333    0.0000 Br  0  0  0  0  0  0  0  0  0  0  0  0
   -5.2042    0.5208    0.0000 C   0  0  0  0  0  0  0  0  0  0  0  0
    6.1333    0.4667    0.0000 C   0  0  0  0  0  0  0  0  0  0  0  0
   -0.4250   -1.1333    0.0000 C   0  0  0  0  0  0  0  0  0  0  0  0
   -1.4208   -2.8333    0.0000 C   0  0  0  0  0  0  0  0  0  0  0  0
    4.2417    1.5667    0.0000 C   0  0  0  0  0  0  0  0  0  0  0  0
    6.1333    1.5667    0.0000 C   0  0  0  0  0  0  0  0  0  0  0  0
    5.1750    2.1208    0.0000 C   0  0  0  0  0  0  0  0  0  0  0  0
  2  1  2  0  0  0  0
  3  1  1  0  0  0  0
  4  2  1  0  0  0  0
  5  4  2  0  0  0  0
  6  3  2  0  0  0  0
  7  1  1  0  0  0  0
  8 14  1  0  0  0  0
  9 11  1  0  0  0  0
 10  9  2  0  0  0  0
 11  8  1  0  0  0  0
 12 17  1  0  0  0  0
 13  8  2  0  0  0  0
 14  7  1  0  0  0  0
 15  2  1  0  0  0  0
 16  3  1  0  0  0  0
 17 10  1  0  0  0  0
 18  5  1  0  0  0  0
 19  4  1  0  0  0  0
 20 12  2  0  0  0  0
 21 16  1  0  0  0  0
 22 16  1  0  0  0  0
 23 17  2  0  0  0  0
 24 20  1  0  0  0  0
 25 23  1  0  0  0  0
  5  6  1  0  0  0  0
 24 25  2  0  0  0  0
M  END
> <#>
1870

> <PLATE>
LAT024

> <ROW>
F

> <COL>
5

> <COORD>
F05

> <LATID>
LAT024F05

> <Supplier>
Asinex

> <Suplier_CAT#>
BAS 00296049

> <Name>
Novel

> <Concentration_(mM)>
2.5

> <IC50_(µM)>
inactive

> <Yeast_Active?>
-

> <Pubchem_CID>
1072174

$$$$
