
  -ISIS-  08130814242D

 20 20  0  0  0  0  0  0  0  0999 V2000
    2.2417   -3.1417    0.0000 N   0  3  0  0  0  0  0  0  0  0  0  0
    5.9542   -1.0000    0.0000 C   0  0  0  0  0  0  0  0  0  0  0  0
    5.5417   -1.7167    0.0000 N   0  0  0  0  0  0  0  0  0  0  0  0
    5.9542   -2.4292    0.0000 C   0  0  2  0  0  0  0  0  0  0  0  0
    3.0667   -3.1417    0.0000 C   0  0  0  0  0  0  0  0  0  0  0  0
    6.7875   -1.0000    0.0000 C   0  0  3  0  0  0  0  0  0  0  0  0
    1.8292   -2.4292    0.0000 O   0  5  0  0  0  0  0  0  0  0  0  0
    5.5417   -3.1417    0.0000 C   0  0  1  0  0  0  0  0  0  0  0  0
    1.8292   -3.8625    0.0000 O   0  0  0  0  0  0  0  0  0  0  0  0
    4.7167   -3.1417    0.0000 C   0  0  0  0  0  0  0  0  0  0  0  0
    5.5417   -0.2875    0.0000 O   0  0  0  0  0  0  0  0  0  0  0  0
    3.4792   -3.8542    0.0000 C   0  0  0  0  0  0  0  0  0  0  0  0
    3.4792   -2.4292    0.0000 C   0  0  0  0  0  0  0  0  0  0  0  0
    4.3042   -3.8542    0.0000 C   0  0  0  0  0  0  0  0  0  0  0  0
    4.3042   -2.4292    0.0000 C   0  0  0  0  0  0  0  0  0  0  0  0
    7.2000   -1.7125    0.0000 Cl  0  0  0  0  0  0  0  0  0  0  0  0
    7.2000   -0.2792    0.0000 Cl  0  0  0  0  0  0  0  0  0  0  0  0
    5.9542   -3.8542    0.0000 O   0  0  0  0  0  0  0  0  0  0  0  0
    6.7875   -2.4292    0.0000 C   0  0  0  0  0  0  0  0  0  0  0  0
    7.2000   -3.1417    0.0000 O   0  0  0  0  0  0  0  0  0  0  0  0
  2  3  1  0  0  0  0
  4  3  1  1  0  0  0
  4  8  1  0  0  0  0
  5  1  1  0  0  0  0
  6  2  1  0  0  0  0
  7  1  1  0  0  0  0
  8 10  1  0  0  0  0
  9  1  2  0  0  0  0
 10 15  2  0  0  0  0
 11  2  2  0  0  0  0
 12  5  1  0  0  0  0
 13  5  2  0  0  0  0
 14 12  2  0  0  0  0
 15 13  1  0  0  0  0
 16  6  1  0  0  0  0
 17  6  1  0  0  0  0
  8 18  1  6  0  0  0
 19  4  1  0  0  0  0
 20 19  1  0  0  0  0
 10 14  1  0  0  0  0
M  CHG  2   1   1   7  -1
M  END
> <#>
124

> <PLATE>
LAT002

> <ROW>
D

> <COL>
7

> <COORD>
D07

> <LATID>
LAT002D07

> <Supplier>
Microsource

> <Suplier_CAT#>
01500174

> <Name>
Chloramphenicol

> <Concentration_(mM)>
2.5

> <IC50_(µM)>
3.5

> <Yeast_Active?>
-

> <Pubchem_CID>
298

> <Description>
Antibacterial, Antirickettsial, Inhibits Protein Synthesis

$$$$
