
  -ISIS-  08130814242D

 21 23  0  0  0  0  0  0  0  0999 V2000
   -2.5125    1.1125    0.0000 C   0  0  0  0  0  0  0  0  0  0  0  0
   -3.5500    1.5833    0.0000 N   0  0  0  0  0  0  0  0  0  0  0  0
   -2.6333   -0.0167    0.0000 S   0  0  0  0  0  0  0  0  0  0  0  0
   -4.3208    0.7333    0.0000 C   0  0  0  0  0  0  0  0  0  0  0  0
    3.4292   -0.0042    0.0000 C   0  0  0  0  0  0  0  0  0  0  0  0
   -3.7500   -0.2542    0.0000 C   0  0  0  0  0  0  0  0  0  0  0  0
    2.4292   -0.6042    0.0000 C   0  0  0  0  0  0  0  0  0  0  0  0
    3.4292    1.1208    0.0000 C   0  0  0  0  0  0  0  0  0  0  0  0
   -0.5333    1.1333    0.0000 N   0  0  0  0  0  0  0  0  0  0  0  0
   -1.5333    1.6958    0.0000 N   0  0  0  0  0  0  0  0  0  0  0  0
    1.4375   -0.0042    0.0000 C   0  0  0  0  0  0  0  0  0  0  0  0
    2.4375    1.6958    0.0000 C   0  0  0  0  0  0  0  0  0  0  0  0
    1.4375    1.1208    0.0000 C   0  0  0  0  0  0  0  0  0  0  0  0
    0.4542    1.7000    0.0000 C   0  0  0  0  0  0  0  0  0  0  0  0
    4.4542   -0.5792    0.0000 O   0  0  0  0  0  0  0  0  0  0  0  0
    4.4292    1.6958    0.0000 C   0  0  0  0  0  0  0  0  0  0  0  0
    2.4000   -1.7792    0.0000 C   0  0  0  0  0  0  0  0  0  0  0  0
   -5.4708    0.7458    0.0000 C   0  0  0  0  0  0  0  0  0  0  0  0
   -4.3208   -1.2375    0.0000 C   0  0  0  0  0  0  0  0  0  0  0  0
   -6.0542   -0.2375    0.0000 C   0  0  0  0  0  0  0  0  0  0  0  0
   -5.4833   -1.2500    0.0000 C   0  0  0  0  0  0  0  0  0  0  0  0
  2  1  2  0  0  0  0
  3  1  1  0  0  0  0
  4  2  1  0  0  0  0
  5  8  1  0  0  0  0
  6  3  1  0  0  0  0
  7 11  1  0  0  0  0
  8 12  2  0  0  0  0
  9 10  1  0  0  0  0
 10  1  1  0  0  0  0
 11 13  2  0  0  0  0
 12 13  1  0  0  0  0
 13 14  1  0  0  0  0
 14  9  2  0  0  0  0
 15  5  1  0  0  0  0
 16  8  1  0  0  0  0
 17  7  1  0  0  0  0
 18  4  1  0  0  0  0
 19  6  1  0  0  0  0
 20 18  2  0  0  0  0
 21 19  2  0  0  0  0
  4  6  2  0  0  0  0
 20 21  1  0  0  0  0
  7  5  2  0  0  0  0
M  END
> <#>
886

> <PLATE>
LAT012

> <ROW>
F

> <COL>
2

> <COORD>
F02

> <LATID>
LAT012F02

> <Supplier>
Chembridge

> <Suplier_CAT#>
5706476

> <Name>
Novel

> <Sec_Name>
224_D02

> <Concentration_(mM)>
2.5

> <IC50_(µM)>
68

> <Yeast_Active?>
-

> <Pubchem_CID>
NULL

$$$$
