
  -ISIS-  08130814242D

 18 19  0  0  0  0  0  0  0  0999 V2000
   -2.4958    1.6000    0.0000 C   0  0  0  0  0  0  0  0  0  0  0  0
   -1.8333    1.2208    0.0000 N   0  0  0  0  0  0  0  0  0  0  0  0
    0.1000    1.6000    0.0000 N   0  0  0  0  0  0  0  0  0  0  0  0
   -2.4958    2.3458    0.0000 O   0  0  0  0  0  0  0  0  0  0  0  0
   -3.7708    1.5833    0.0000 O   0  0  0  0  0  0  0  0  0  0  0  0
   -3.1333    1.2208    0.0000 C   0  0  0  0  0  0  0  0  0  0  0  0
   -4.4125    1.2000    0.0000 C   0  0  0  0  0  0  0  0  0  0  0  0
   -5.6958    0.4625    0.0000 C   0  0  0  0  0  0  0  0  0  0  0  0
   -1.1958    1.5958    0.0000 C   0  0  0  0  0  0  0  0  0  0  0  0
   -6.3292    0.0625    0.0000 Cl  0  0  0  0  0  0  0  0  0  0  0  0
   -4.4125    0.4625    0.0000 C   0  0  0  0  0  0  0  0  0  0  0  0
   -5.0500    1.5625    0.0000 C   0  0  0  0  0  0  0  0  0  0  0  0
   -5.0500    0.0833    0.0000 C   0  0  0  0  0  0  0  0  0  0  0  0
   -5.6958    1.2000    0.0000 C   0  0  0  0  0  0  0  0  0  0  0  0
   -0.5333    1.2333    0.0000 C   0  0  0  0  0  0  0  0  0  0  0  0
    0.0875    2.3625    0.0000 C   0  0  0  0  0  0  0  0  0  0  0  0
   -1.1958    2.3333    0.0000 C   0  0  0  0  0  0  0  0  0  0  0  0
   -0.5708    2.7125    0.0000 C   0  0  0  0  0  0  0  0  0  0  0  0
  2  1  1  0  0  0  0
  3 15  1  0  0  0  0
  4  1  2  0  0  0  0
  5  6  1  0  0  0  0
  6  1  1  0  0  0  0
  7  5  1  0  0  0  0
  8 14  2  0  0  0  0
  9  2  1  0  0  0  0
 10  8  1  0  0  0  0
 11  7  1  0  0  0  0
 12  7  2  0  0  0  0
 13 11  2  0  0  0  0
 14 12  1  0  0  0  0
 15  9  2  0  0  0  0
 16 18  1  0  0  0  0
 17  9  1  0  0  0  0
 18 17  2  0  0  0  0
  8 13  1  0  0  0  0
 16  3  2  0  0  0  0
M  END
> <#>
629

> <PLATE>
LAT008

> <ROW>
E

> <COL>
10

> <COORD>
E10

> <LATID>
LAT008E10

> <Supplier>
Chembridge

> <Suplier_CAT#>
5541030

> <Name>
Novel

> <Sec_Name>
157_D09

> <Concentration_(mM)>
2.5

> <IC50_(µM)>
0.13

> <Yeast_Active?>
-

> <Pubchem_CID>
293791

$$$$
