
  -ISIS-  08130814242D

 24 24  0  0  0  0  0  0  0  0999 V2000
    4.9461   -3.3730    0.0000 C   0  0  0  0  0  0  0  0  0  0  0  0
    5.3525   -4.0846    0.0000 C   0  0  0  0  0  0  0  0  0  0  0  0
    6.1701   -4.0873    0.0000 C   0  0  0  0  0  0  0  0  0  0  0  0
    6.5821   -3.3793    0.0000 C   0  0  0  0  0  0  0  0  0  0  0  0
    6.1707   -2.6670    0.0000 C   0  0  0  0  0  0  0  0  0  0  0  0
    5.3545   -2.6678    0.0000 C   0  0  0  0  0  0  0  0  0  0  0  0
    1.6544   -3.3716    0.0000 C   0  0  0  0  0  0  0  0  0  0  0  0
    1.2377   -4.0820    0.0000 C   0  0  0  0  0  0  0  0  0  0  0  0
    1.6444   -4.7959    0.0000 C   0  0  0  0  0  0  0  0  0  0  0  0
    2.4678   -4.8008    0.0000 C   0  0  0  0  0  0  0  0  0  0  0  0
    2.8827   -4.0857    0.0000 C   0  0  0  0  0  0  0  0  0  0  0  0
    2.4736   -3.3746    0.0000 C   0  0  0  0  0  0  0  0  0  0  0  0
    3.7077   -4.0872    0.0000 C   0  0  0  0  0  0  0  0  0  0  0  0
    4.1215   -3.3734    0.0000 C   0  0  0  0  0  0  0  0  0  0  0  0
    7.4071   -3.3806    0.0000 O   0  0  0  0  0  0  0  0  0  0  0  0
    8.1167   -2.9667    0.0000 C   0  0  0  0  0  0  0  0  0  0  0  0
    8.8292   -3.3750    0.0000 N   0  3  3  0  0  0  0  0  0  0  0  0
    9.5417   -2.9625    0.0000 C   0  0  0  0  0  0  0  0  0  0  0  0
   10.2542   -3.3708    0.0000 C   0  0  0  0  0  0  0  0  0  0  0  0
    8.8250   -2.5500    0.0000 C   0  0  0  0  0  0  0  0  0  0  0  0
    9.4083   -1.9625    0.0000 C   0  0  0  0  0  0  0  0  0  0  0  0
    8.8250   -4.2000    0.0000 C   0  0  0  0  0  0  0  0  0  0  0  0
    9.5375   -4.6125    0.0000 C   0  0  0  0  0  0  0  0  0  0  0  0
    7.1792   -5.0833    0.0000 I   0  5  0  0  0  0  0  0  0  0  0  0
 11 12  2  0  0  0  0
 12  7  1  0  0  0  0
  5  6  2  0  0  0  0
 11 13  1  0  0  0  0
  6  1  1  0  0  0  0
 13 14  2  0  0  0  0
 14  1  1  0  0  0  0
  2  3  1  0  0  0  0
  4 15  1  0  0  0  0
 15 16  1  0  0  0  0
  7  8  2  0  0  0  0
 16 17  1  0  0  0  0
  3  4  2  0  0  0  0
 17 18  1  0  0  0  0
  8  9  1  0  0  0  0
 18 19  1  0  0  0  0
  1  2  2  0  0  0  0
 17 20  1  0  0  0  0
  9 10  2  0  0  0  0
 20 21  1  0  0  0  0
  4  5  1  0  0  0  0
 17 22  1  0  0  0  0
 10 11  1  0  0  0  0
 22 23  1  0  0  0  0
M  CHG  2  17   1  24  -1
M  END
> <#>
249

> <PLATE>
LAT004

> <ROW>
A

> <COL>
3

> <COORD>
A03

> <LATID>
LAT004A03

> <Supplier>
Sigma

> <Suplier_CAT#>
M 3184

> <Name>
MG 624

> <Concentration_(mM)>
2.5

> <IC50_(µM)>
35

> <Yeast_Active?>
+

> <Pubchem_CID>
6603924

> <Description>
Nicotinic acetylcholine receptor antagonist; selectively inhibits alpha-bungarotoxin sensitive receptors that contain the alpha7 subunit

$$$$
