
  -ISIS-  08130814242D

 31 35  0  0  0  0  0  0  0  0999 V2000
   -0.5458    0.0333    0.0000 C   0  0  3  0  0  0  0  0  0  0  0  0
   -0.9833   -0.5875    0.0000 C   0  0  0  0  0  0  0  0  0  0  0  0
   -0.9833    0.6500    0.0000 C   0  0  0  0  0  0  0  0  0  0  0  0
    0.2000   -0.0667    0.0000 C   0  0  3  0  0  0  0  0  0  0  0  0
   -1.7000   -0.3667    0.0000 C   0  0  0  0  0  0  0  0  0  0  0  0
   -1.7000    0.4125    0.0000 C   0  0  0  0  0  0  0  0  0  0  0  0
    1.3792    0.0000    0.0000 N   0  3  0  0  0  0  0  0  0  0  0  0
    0.5000   -0.7875    0.0000 C   0  0  0  0  0  0  0  0  0  0  0  0
    0.8167    0.4125    0.0000 C   0  0  0  0  0  0  0  0  0  0  0  0
    1.5542   -1.5875    0.0000 C   0  0  0  0  0  0  0  0  0  0  0  0
    1.2542   -0.8875    0.0000 C   0  0  0  0  0  0  0  0  0  0  0  0
    0.0000    0.5708    0.0000 C   0  0  0  0  0  0  0  0  0  0  0  0
   -0.7208    1.3708    0.0000 O   0  0  0  0  0  0  0  0  0  0  0  0
   -0.7208   -1.3292    0.0000 O   0  0  0  0  0  0  0  0  0  0  0  0
    1.1000   -2.1875    0.0000 C   0  0  0  0  0  0  0  0  0  0  0  0
    2.3042    0.5958    0.0000 O   0  5  0  0  0  0  0  0  0  0  0  0
    2.3292   -1.6875    0.0000 O   0  0  0  0  0  0  0  0  0  0  0  0
    1.3792   -2.9042    0.0000 O   0  0  0  0  0  0  0  0  0  0  0  0
    2.1542   -0.7000    0.0000 O   0  0  0  0  0  0  0  0  0  0  0  0
    2.4417   -2.7667    0.0000 C   0  0  0  0  0  0  0  0  0  0  0  0
    0.0375   -1.3875    0.0000 C   0  0  0  0  0  0  0  0  0  0  0  0
    0.3375   -2.0875    0.0000 C   0  0  0  0  0  0  0  0  0  0  0  0
   -2.3625    0.7958    0.0000 C   0  0  0  0  0  0  0  0  0  0  0  0
   -2.3625   -0.7500    0.0000 C   0  0  0  0  0  0  0  0  0  0  0  0
   -0.5208    1.1125    0.0000 C   0  0  0  0  0  0  0  0  0  0  0  0
    0.7375    0.7500    0.0000 C   0  0  0  0  0  0  0  0  0  0  0  0
   -3.0208   -0.3500    0.0000 C   0  0  0  0  0  0  0  0  0  0  0  0
   -3.0208    0.4125    0.0000 C   0  0  0  0  0  0  0  0  0  0  0  0
   -0.3000    1.8333    0.0000 C   0  0  0  0  0  0  0  0  0  0  0  0
    0.9542    1.4708    0.0000 C   0  0  0  0  0  0  0  0  0  0  0  0
    0.4167    2.0333    0.0000 C   0  0  0  0  0  0  0  0  0  0  0  0
  2  1  1  0  0  0  0
  3  1  1  0  0  0  0
  4  1  1  0  0  0  0
  5  2  1  0  0  0  0
  6  3  1  0  0  0  0
  7  9  1  0  0  0  0
  8  4  1  0  0  0  0
  9  4  1  0  0  0  0
 10 11  2  0  0  0  0
 11  8  1  0  0  0  0
 12  1  1  0  0  0  0
 13  3  2  0  0  0  0
 14  2  2  0  0  0  0
 15 22  2  0  0  0  0
 16  7  1  0  0  0  0
 17 10  1  0  0  0  0
 18 15  1  0  0  0  0
 19  7  2  0  0  0  0
 20 17  1  0  0  0  0
 21  8  2  0  0  0  0
 22 21  1  0  0  0  0
 23  6  1  0  0  0  0
 24  5  1  0  0  0  0
 25 12  2  0  0  0  0
 26 12  1  0  0  0  0
 27 24  2  0  0  0  0
 28 23  2  0  0  0  0
 29 25  1  0  0  0  0
 30 26  2  0  0  0  0
 31 30  1  0  0  0  0
  6  5  2  0  0  0  0
 31 29  2  0  0  0  0
 28 27  1  0  0  0  0
 10 15  1  0  0  0  0
 18 20  1  0  0  0  0
M  CHG  2   7   1  16  -1
M  END
> <#>
757

> <PLATE>
LAT010

> <ROW>
E

> <COL>
6

> <COORD>
E06

> <LATID>
LAT010E06

> <Supplier>
Chembridge

> <Suplier_CAT#>
5604717

> <Name>
Novel

> <Sec_Name>
183_D03

> <Concentration_(mM)>
2.5

> <IC50_(µM)>
65

> <Yeast_Active?>
-

> <Pubchem_CID>
1107523

$$$$
