
  -ISIS-  08130814242D

 31 32  0  0  0  0  0  0  0  0999 V2000
   -0.0917    1.5791    0.0000 Na  0  3  0  0  0  0  0  0  0  0  0  0
    0.3750   -1.0459    0.0000 Na  0  3  0  0  0  0  0  0  0  0  0  0
    3.8833    0.4416    0.0000 C   0  0  0  0  0  0  0  0  0  0  0  0
    3.2333    0.0666    0.0000 C   0  0  0  0  0  0  0  0  0  0  0  0
    3.8833    1.1916    0.0000 C   0  0  0  0  0  0  0  0  0  0  0  0
    2.5875    1.1916    0.0000 C   0  0  0  0  0  0  0  0  0  0  0  0
    2.5875    0.4416    0.0000 C   0  0  0  0  0  0  0  0  0  0  0  0
    1.9375    1.5666    0.0000 C   0  0  0  0  0  0  0  0  0  0  0  0
    3.2333    1.5666    0.0000 O   0  0  0  0  0  0  0  0  0  0  0  0
    4.5250    0.0666    0.0000 C   0  0  0  0  0  0  0  0  0  0  0  0
    3.2333   -0.6834    0.0000 C   0  0  0  0  0  0  0  0  0  0  0  0
    4.5250    1.5666    0.0000 C   0  0  0  0  0  0  0  0  0  0  0  0
    1.2875    1.1916    0.0000 C   0  0  0  0  0  0  0  0  0  0  0  0
    5.1750    0.4416    0.0000 C   0  0  0  0  0  0  0  0  0  0  0  0
    5.1750    1.1916    0.0000 C   0  0  0  0  0  0  0  0  0  0  0  0
    1.9375    0.0666    0.0000 C   0  0  0  0  0  0  0  0  0  0  0  0
    2.5833   -1.0584    0.0000 C   0  0  0  0  0  0  0  0  0  0  0  0
    1.2875    0.4416    0.0000 C   0  0  0  0  0  0  0  0  0  0  0  0
    2.0583   -0.7959    0.0000 C   0  0  0  0  0  0  0  0  0  0  0  0
    0.6500    1.5166    0.0000 O   0  5  0  0  0  0  0  0  0  0  0  0
    1.9375    2.3166    0.0000 Hg  0  0  0  0  0  0  0  0  0  0  0  0
    1.2750   -1.0459    0.0000 O   0  5  0  0  0  0  0  0  0  0  0  0
    5.8333    1.5666    0.0000 O   0  0  0  0  0  0  0  0  0  0  0  0
    2.0875   -0.2959    0.0000 O   0  0  0  0  0  0  0  0  0  0  0  0
    5.8333    0.0583    0.0000 Br  0  0  0  0  0  0  0  0  0  0  0  0
    0.6375    0.0583    0.0000 Br  0  0  0  0  0  0  0  0  0  0  0  0
    3.8833   -1.0584    0.0000 C   0  0  0  0  0  0  0  0  0  0  0  0
    1.2958    2.6916    0.0000 O   0  0  0  0  0  0  0  0  0  0  0  0
    2.5833   -1.8084    0.0000 C   0  0  0  0  0  0  0  0  0  0  0  0
    3.8750   -1.8084    0.0000 C   0  0  0  0  0  0  0  0  0  0  0  0
    3.2250   -2.1834    0.0000 C   0  0  0  0  0  0  0  0  0  0  0  0
  4  3  2  0  0  0  0
  5  3  1  0  0  0  0
  6  9  1  0  0  0  0
  7  4  1  0  0  0  0
  8  6  1  0  0  0  0
  9  5  1  0  0  0  0
 10  3  1  0  0  0  0
 11  4  1  0  0  0  0
 12  5  2  0  0  0  0
 13  8  2  0  0  0  0
 14 10  2  0  0  0  0
 15 14  1  0  0  0  0
 16  7  1  0  0  0  0
 17 11  1  0  0  0  0
 18 16  2  0  0  0  0
 19 17  1  0  0  0  0
 20 13  1  0  0  0  0
 21  8  1  0  0  0  0
 22 19  1  0  0  0  0
 23 15  2  0  0  0  0
 24 19  2  0  0  0  0
 25 14  1  0  0  0  0
 26 18  1  0  0  0  0
 27 11  2  0  0  0  0
 28 21  1  0  0  0  0
 29 17  2  0  0  0  0
 30 27  1  0  0  0  0
 31 30  2  0  0  0  0
  6  7  2  0  0  0  0
 12 15  1  0  0  0  0
 18 13  1  0  0  0  0
 31 29  1  0  0  0  0
M  CHG  4   1   1   2   1  20  -1  22  -1
M  END
> <#>
162

> <PLATE>
LAT003

> <ROW>
B

> <COL>
2

> <COORD>
B02

> <LATID>
LAT003B02

> <Supplier>
Microsource

> <Suplier_CAT#>
1500637

> <Name>
Merbromin

> <Concentration_(mM)>
2.5

> <IC50_(µM)>
9

> <Yeast_Active?>
-

> <Pubchem_CID>
8508

$$$$
