
  -ISIS-  08130814242D

 18 19  0  0  0  0  0  0  0  0999 V2000
    3.6792   -0.9542    0.0000 N   0  3  0  0  0  0  0  0  0  0  0  0
    2.9167   -0.5167    0.0000 C   0  0  0  0  0  0  0  0  0  0  0  0
   -0.1208    0.3958    0.0000 N   0  0  0  0  0  0  0  0  0  0  0  0
    3.7500   -1.8375    0.0000 O   0  5  0  0  0  0  0  0  0  0  0  0
    4.4667   -0.5792    0.0000 O   0  0  0  0  0  0  0  0  0  0  0  0
   -2.3333   -1.0542    0.0000 N   0  0  0  0  0  0  0  0  0  0  0  0
    0.6167    0.7000    0.0000 N   0  0  0  0  0  0  0  0  0  0  0  0
   -0.7333    0.7458    0.0000 C   0  0  0  0  0  0  0  0  0  0  0  0
    2.1500   -0.9542    0.0000 C   0  0  0  0  0  0  0  0  0  0  0  0
    2.9167    0.3708    0.0000 C   0  0  0  0  0  0  0  0  0  0  0  0
   -1.5208    0.3500    0.0000 C   0  0  0  0  0  0  0  0  0  0  0  0
    1.3792    0.3708    0.0000 C   0  0  0  0  0  0  0  0  0  0  0  0
    2.1500    0.8208    0.0000 C   0  0  0  0  0  0  0  0  0  0  0  0
    1.3792   -0.5167    0.0000 C   0  0  0  0  0  0  0  0  0  0  0  0
   -1.5208   -0.5875    0.0000 C   0  0  0  0  0  0  0  0  0  0  0  0
   -3.1458   -0.5875    0.0000 C   0  0  0  0  0  0  0  0  0  0  0  0
   -2.3333    0.8208    0.0000 C   0  0  0  0  0  0  0  0  0  0  0  0
   -3.1458    0.3500    0.0000 C   0  0  0  0  0  0  0  0  0  0  0  0
  2  1  1  0  0  0  0
  3  7  1  0  0  0  0
  4  1  1  0  0  0  0
  5  1  2  0  0  0  0
  6 15  1  0  0  0  0
  7 12  1  0  0  0  0
  8  3  2  0  0  0  0
  9  2  1  0  0  0  0
 10  2  2  0  0  0  0
 11  8  1  0  0  0  0
 12 13  2  0  0  0  0
 13 10  1  0  0  0  0
 14  9  2  0  0  0  0
 15 11  2  0  0  0  0
 16 18  1  0  0  0  0
 17 11  1  0  0  0  0
 18 17  2  0  0  0  0
 14 12  1  0  0  0  0
  6 16  2  0  0  0  0
M  CHG  2   1   1   4  -1
M  END
> <#>
1625

> <PLATE>
LAT021

> <ROW>
A

> <COL>
5

> <COORD>
A05

> <LATID>
LAT021A05

> <Supplier>
Chembridge

> <Suplier_CAT#>
5104588

> <Name>
Novel

> <Concentration_(mM)>
2.5

> <IC50_(µM)>
9.8

> <Yeast_Active?>
-

> <Pubchem_CID>
222706

$$$$
