
  -ISIS-  08130814242D

 24 26  0  0  0  0  0  0  0  0999 V2000
   -2.4625   -0.3792    0.0000 C   0  0  0  0  0  0  0  0  0  0  0  0
   -3.7625   -1.1500    0.0000 N   0  0  0  0  0  0  0  0  0  0  0  0
   -2.8833   -1.1292    0.0000 C   0  0  0  0  0  0  0  0  0  0  0  0
   -3.7833    0.3500    0.0000 C   0  0  0  0  0  0  0  0  0  0  0  0
    0.2500   -0.3500    0.0000 C   0  0  0  0  0  0  0  0  0  0  0  0
    3.0167   -0.3167    0.0000 C   0  0  0  0  0  0  0  0  0  0  0  0
   -1.1458    0.4333    0.0000 N   0  0  0  0  0  0  0  0  0  0  0  0
   -4.2208   -0.4000    0.0000 C   0  0  0  0  0  0  0  0  0  0  0  0
    3.9500   -0.3042    0.0000 C   0  0  0  0  0  0  0  0  0  0  0  0
    2.5500    0.4708    0.0000 C   0  0  0  0  0  0  0  0  0  0  0  0
   -0.2208    0.4458    0.0000 N   0  0  0  0  0  0  0  0  0  0  0  0
    1.6292    0.4625    0.0000 O   0  0  0  0  0  0  0  0  0  0  0  0
   -1.5958   -0.3667    0.0000 C   0  0  0  0  0  0  0  0  0  0  0  0
   -0.2000   -1.1500    0.0000 O   0  0  0  0  0  0  0  0  0  0  0  0
    1.1667   -0.3375    0.0000 C   0  0  0  0  0  0  0  0  0  0  0  0
    3.0042    1.2708    0.0000 C   0  0  0  0  0  0  0  0  0  0  0  0
    4.4042    0.4958    0.0000 C   0  0  0  0  0  0  0  0  0  0  0  0
    2.5542   -1.1167    0.0000 Cl  0  0  0  0  0  0  0  0  0  0  0  0
    3.9375    1.2833    0.0000 C   0  0  0  0  0  0  0  0  0  0  0  0
    5.3292    0.4958    0.0000 Cl  0  0  0  0  0  0  0  0  0  0  0  0
   -4.2333    1.0958    0.0000 C   0  0  0  0  0  0  0  0  0  0  0  0
   -5.0833   -0.4000    0.0000 C   0  0  0  0  0  0  0  0  0  0  0  0
   -5.1000    1.0833    0.0000 C   0  0  0  0  0  0  0  0  0  0  0  0
   -5.5458    0.3333    0.0000 C   0  0  0  0  0  0  0  0  0  0  0  0
  2  3  1  0  0  0  0
  3  1  2  0  0  0  0
  4  1  1  0  0  0  0
  5 11  1  0  0  0  0
  6 10  2  0  0  0  0
  7 13  2  0  0  0  0
  8  4  2  0  0  0  0
  9  6  1  0  0  0  0
 10 12  1  0  0  0  0
 11  7  1  0  0  0  0
 12 15  1  0  0  0  0
 13  1  1  0  0  0  0
 14  5  2  0  0  0  0
 15  5  1  0  0  0  0
 16 10  1  0  0  0  0
 17 19  1  0  0  0  0
 18  6  1  0  0  0  0
 19 16  2  0  0  0  0
 20 17  1  0  0  0  0
 21  4  1  0  0  0  0
 22  8  1  0  0  0  0
 23 21  2  0  0  0  0
 24 23  1  0  0  0  0
  2  8  1  0  0  0  0
 22 24  2  0  0  0  0
 17  9  2  0  0  0  0
M  END
> <#>
548

> <PLATE>
LAT007

> <ROW>
D

> <COL>
10

> <COORD>
D10

> <LATID>
LAT007D10

> <Supplier>
Chembridge

> <Suplier_CAT#>
5471534

> <Name>
Novel

> <Sec_Name>
135_E05

> <Concentration_(mM)>
2.5

> <IC50_(µM)>
0.1

> <Yeast_Active?>
-

> <Pubchem_CID>
NULL

$$$$
