
  -ISIS-  08130814242D

 24 26  0  0  0  0  0  0  0  0999 V2000
    3.0292   -3.5042    0.0000 N   0  0  3  0  0  0  0  0  0  0  0  0
    2.9417   -4.3292    0.0000 C   0  0  0  0  0  0  0  0  0  0  0  0
    3.7000   -4.6667    0.0000 N   0  0  0  0  0  0  0  0  0  0  0  0
    3.8375   -3.3375    0.0000 C   0  0  0  0  0  0  0  0  0  0  0  0
    4.2542   -4.0500    0.0000 C   0  0  0  0  0  0  0  0  0  0  0  0
    5.0792   -4.0500    0.0000 C   0  0  0  0  0  0  0  0  0  0  0  0
    4.2542   -2.6167    0.0000 C   0  0  0  0  0  0  0  0  0  0  0  0
    2.4167   -2.9542    0.0000 C   0  0  0  0  0  0  0  0  0  0  0  0
    7.9875   -4.7667    0.0000 N   0  0  0  0  0  0  0  0  0  0  0  0
    6.3292   -3.3375    0.0000 N   0  0  0  0  0  0  0  0  0  0  0  0
    5.5000   -3.3375    0.0000 C   0  0  0  0  0  0  0  0  0  0  0  0
    7.5667   -4.0500    0.0000 C   0  0  0  0  0  0  0  0  0  0  0  0
    5.0792   -2.6167    0.0000 C   0  0  0  0  0  0  0  0  0  0  0  0
    6.7417   -4.0500    0.0000 C   0  0  0  0  0  0  0  0  0  0  0  0
    8.8167   -4.7667    0.0000 C   0  0  0  0  0  0  0  0  0  0  0  0
    2.5875   -2.1375    0.0000 C   0  0  0  0  0  0  0  0  0  0  0  0
    1.6167   -3.2042    0.0000 C   0  0  0  0  0  0  0  0  0  0  0  0
    7.9875   -3.3375    0.0000 C   0  0  0  0  0  0  0  0  0  0  0  0
    9.2292   -4.0500    0.0000 C   0  0  0  0  0  0  0  0  0  0  0  0
    1.0042   -2.6542    0.0000 C   0  0  0  0  0  0  0  0  0  0  0  0
    1.9667   -1.5875    0.0000 C   0  0  0  0  0  0  0  0  0  0  0  0
    8.8167   -3.3375    0.0000 C   0  0  0  0  0  0  0  0  0  0  0  0
    1.1792   -1.8417    0.0000 C   0  0  0  0  0  0  0  0  0  0  0  0
    8.2500   -2.1292    0.0000 Cl  0  0  0  0  0  0  0  0  0  0  0  0
  2  1  1  0  0  0  0
  3  2  2  0  0  0  0
  4  1  1  0  0  0  0
  5  4  2  0  0  0  0
  6  5  1  0  0  0  0
  7  4  1  0  0  0  0
  8  1  1  0  0  0  0
  9 12  1  0  0  0  0
 10 11  1  0  0  0  0
 11 13  1  0  0  0  0
 12 14  1  0  0  0  0
 13  7  2  0  0  0  0
 14 10  1  0  0  0  0
 15  9  2  0  0  0  0
 16  8  2  0  0  0  0
 17  8  1  0  0  0  0
 18 12  2  0  0  0  0
 19 22  2  0  0  0  0
 20 17  2  0  0  0  0
 21 16  1  0  0  0  0
 22 18  1  0  0  0  0
 23 20  1  0  0  0  0
  3  5  1  0  0  0  0
 21 23  2  0  0  0  0
  6 11  2  0  0  0  0
 15 19  1  0  0  0  0
M  END
> <#>
1482

> <PLATE>
LAT019

> <ROW>
B

> <COL>
7

> <COORD>
B07

> <LATID>
LAT019B07

> <Supplier>
Chembridge

> <Suplier_CAT#>
7955195

> <Name>
Novel

> <Concentration_(mM)>
2.5

> <IC50_(µM)>
>100

> <Yeast_Active?>
-

> <Pubchem_CID>
666327

$$$$
