
  -ISIS-  08130814242D

 21 22  0  0  0  0  0  0  0  0999 V2000
    3.3167   -8.6750    0.0000 C   0  0  0  0  0  0  0  0  0  0  0  0
    5.1417   -8.7042    0.0000 C   0  0  0  0  0  0  0  0  0  0  0  0
    4.1417   -8.1792    0.0000 C   0  0  0  0  0  0  0  0  0  0  0  0
    5.1417   -9.4625    0.0000 C   0  0  0  0  0  0  0  0  0  0  0  0
    3.3167   -9.4292    0.0000 C   0  0  0  0  0  0  0  0  0  0  0  0
    5.7875   -8.3292    0.0000 C   0  0  0  0  0  0  0  0  0  0  0  0
    2.6667   -8.2917    0.0000 C   0  0  0  0  0  0  0  0  0  0  0  0
    2.6667   -9.8042    0.0000 C   0  0  0  0  0  0  0  0  0  0  0  0
    5.7875   -9.8375    0.0000 C   0  0  0  0  0  0  0  0  0  0  0  0
    2.0167   -8.6750    0.0000 C   0  0  0  0  0  0  0  0  0  0  0  0
    6.4417   -8.7042    0.0000 C   0  0  0  0  0  0  0  0  0  0  0  0
    6.4417   -9.4625    0.0000 C   0  0  0  0  0  0  0  0  0  0  0  0
    2.0167   -9.4292    0.0000 C   0  0  0  0  0  0  0  0  0  0  0  0
    4.5500   -9.9917    0.0000 Cl  0  0  0  0  0  0  0  0  0  0  0  0
    3.8917   -9.8917    0.0000 Cl  0  0  0  0  0  0  0  0  0  0  0  0
    7.0917   -8.3292    0.0000 Cl  0  0  0  0  0  0  0  0  0  0  0  0
    5.7875  -10.5875    0.0000 Cl  0  0  0  0  0  0  0  0  0  0  0  0
    2.6667  -10.5542    0.0000 Cl  0  0  0  0  0  0  0  0  0  0  0  0
    1.3667   -8.3000    0.0000 Cl  0  0  0  0  0  0  0  0  0  0  0  0
    5.7875   -7.5792    0.0000 O   0  0  0  0  0  0  0  0  0  0  0  0
    2.6667   -7.5417    0.0000 O   0  0  0  0  0  0  0  0  0  0  0  0
  2  3  1  0  0  0  0
  3  1  1  0  0  0  0
  4  2  1  0  0  0  0
  5  1  2  0  0  0  0
  6  2  2  0  0  0  0
  7  1  1  0  0  0  0
  8  5  1  0  0  0  0
  9  4  2  0  0  0  0
 10  7  2  0  0  0  0
 11  6  1  0  0  0  0
 12 11  2  0  0  0  0
 13 10  1  0  0  0  0
 14  4  1  0  0  0  0
 15  5  1  0  0  0  0
 16 11  1  0  0  0  0
 17  9  1  0  0  0  0
 18  8  1  0  0  0  0
 19 10  1  0  0  0  0
 20  6  1  0  0  0  0
 21  7  1  0  0  0  0
 13  8  2  0  0  0  0
  9 12  1  0  0  0  0
M  END
> <#>
60

> <PLATE>
LAT001

> <ROW>
D

> <COL>
9

> <COORD>
D09

> <LATID>
LAT001D09

> <Supplier>
Microsource

> <Suplier_CAT#>
01500328

> <Name>
Hexachlorophene

> <Concentration_(mM)>
2.5

> <IC50_(µM)>
4.3

> <Yeast_Active?>
+

> <Pubchem_CID>
3598

> <Description>
Antiinfective (Topical)

$$$$
