
  -ISIS-  08130814242D

 28 30  0  0  0  0  0  0  0  0999 V2000
    1.4542   -2.7167    0.0000 S   0  0  3  0  0  0  0  0  0  0  0  0
    0.7417   -2.3042    0.0000 N   0  0  3  0  0  0  0  0  0  0  0  0
    5.0375   -1.5000    0.0000 C   0  0  0  0  0  0  0  0  0  0  0  0
    2.1750   -2.3167    0.0000 C   0  0  0  0  0  0  0  0  0  0  0  0
    4.3250   -1.0875    0.0000 N   0  0  0  0  0  0  0  0  0  0  0  0
    1.0417   -3.4292    0.0000 O   0  0  0  0  0  0  0  0  0  0  0  0
    1.8667   -3.4292    0.0000 O   0  0  0  0  0  0  0  0  0  0  0  0
    5.7542   -1.0917    0.0000 C   0  0  0  0  0  0  0  0  0  0  0  0
    7.9042    0.1250    0.0000 C   0  0  3  0  0  0  0  0  0  0  0  0
    7.1875   -0.2792    0.0000 C   0  0  0  0  0  0  0  0  0  0  0  0
    5.0292   -2.3250    0.0000 O   0  0  0  0  0  0  0  0  0  0  0  0
    5.7542   -0.2667    0.0000 C   0  0  0  0  0  0  0  0  0  0  0  0
    6.4625   -1.5125    0.0000 C   0  0  0  0  0  0  0  0  0  0  0  0
    6.4750    0.1375    0.0000 C   0  0  0  0  0  0  0  0  0  0  0  0
    7.1792   -1.1042    0.0000 C   0  0  0  0  0  0  0  0  0  0  0  0
   -0.6708   -1.4792    0.0000 O   0  0  0  0  0  0  0  0  0  0  0  0
    2.1750   -1.4875    0.0000 C   0  0  0  0  0  0  0  0  0  0  0  0
    2.8792   -2.7292    0.0000 C   0  0  0  0  0  0  0  0  0  0  0  0
    3.6042   -1.4917    0.0000 C   0  0  0  0  0  0  0  0  0  0  0  0
    0.0375   -2.7167    0.0000 C   0  0  0  0  0  0  0  0  0  0  0  0
    0.7500   -1.4792    0.0000 C   0  0  0  0  0  0  0  0  0  0  0  0
    3.6042   -2.3167    0.0000 C   0  0  0  0  0  0  0  0  0  0  0  0
    2.8917   -1.0750    0.0000 C   0  0  0  0  0  0  0  0  0  0  0  0
    0.0375   -1.0667    0.0000 C   0  0  0  0  0  0  0  0  0  0  0  0
   -0.6708   -2.3042    0.0000 C   0  0  0  0  0  0  0  0  0  0  0  0
    8.6167   -0.2917    0.0000 C   0  0  0  0  0  0  0  0  0  0  0  0
    7.4917    0.8458    0.0000 C   0  0  0  0  0  0  0  0  0  0  0  0
    8.3167    0.8458    0.0000 C   0  0  0  0  0  0  0  0  0  0  0  0
  2  1  1  0  0  0  0
  3  5  1  0  0  0  0
  4  1  1  0  0  0  0
  5 19  1  0  0  0  0
  6  1  2  0  0  0  0
  7  1  2  0  0  0  0
  8  3  1  0  0  0  0
  9 10  1  0  0  0  0
 10 15  2  0  0  0  0
 11  3  2  0  0  0  0
 12  8  1  0  0  0  0
 13  8  2  0  0  0  0
 14 12  2  0  0  0  0
 15 13  1  0  0  0  0
 16 24  1  0  0  0  0
 17  4  2  0  0  0  0
 18  4  1  0  0  0  0
 19 22  1  0  0  0  0
 20  2  1  0  0  0  0
 21  2  1  0  0  0  0
 22 18  2  0  0  0  0
 23 17  1  0  0  0  0
 24 21  1  0  0  0  0
 25 20  1  0  0  0  0
 26  9  1  0  0  0  0
 27  9  1  0  0  0  0
 28  9  1  0  0  0  0
 19 23  2  0  0  0  0
 16 25  1  0  0  0  0
 14 10  1  0  0  0  0
M  END
> <#>
956

> <PLATE>
LAT012

> <ROW>
D

> <COL>
11

> <COORD>
D11

> <LATID>
LAT012D11

> <Supplier>
Chembridge

> <Suplier_CAT#>
5739050

> <Name>
Novel

> <Sec_Name>
233_E05

> <Concentration_(mM)>
2.5

> <IC50_(µM)>
100

> <Yeast_Active?>
-

> <Pubchem_CID>
1108157

$$$$
