
  -ISIS-  08130814242D

 39 38  0  0  0  0  0  0  0  0999 V2000
   -1.8656   -4.9951    0.0000 C   0  0  0  0  0  0  0  0  0  0  0  0
   -0.8656   -4.9951    0.0000 C   0  0  0  0  0  0  0  0  0  0  0  0
   -0.3656   -4.1292    0.0000 C   0  0  0  0  0  0  0  0  0  0  0  0
   -0.8656   -3.2633    0.0000 C   0  0  0  0  0  0  0  0  0  0  0  0
   -1.8656   -3.2633    0.0000 C   0  0  0  0  0  0  0  0  0  0  0  0
   -2.3633   -4.1292    0.0000 C   0  0  0  0  0  0  0  0  0  0  0  0
   -3.3341   -3.8458    0.0000 C   0  0  0  0  0  0  0  0  0  0  0  0
    0.6344   -4.1292    0.0000 O   0  0  0  0  0  0  0  0  0  0  0  0
   -3.3341   -2.8004    0.0000 N   0  0  0  0  0  0  0  0  0  0  0  0
   -4.4458   -4.1292    0.0000 N   0  0  0  0  0  0  0  0  0  0  0  0
    1.4958   -4.6292    0.0000 C   0  0  0  0  0  0  0  0  0  0  0  0
    2.3583   -4.1292    0.0000 C   0  0  0  0  0  0  0  0  0  0  0  0
    3.2208   -4.6250    0.0000 C   0  0  0  0  0  0  0  0  0  0  0  0
    4.0792   -4.1250    0.0000 C   0  0  0  0  0  0  0  0  0  0  0  0
    4.9375   -4.6208    0.0000 C   0  0  0  0  0  0  0  0  0  0  0  0
    6.8159   -4.1315    0.0000 C   0  0  0  0  0  0  0  0  0  0  0  0
    7.2523   -5.0178    0.0000 C   0  0  0  0  0  0  0  0  0  0  0  0
    8.2795   -5.0178    0.0000 C   0  0  0  0  0  0  0  0  0  0  0  0
    8.8159   -4.1315    0.0000 C   0  0  0  0  0  0  0  0  0  0  0  0
    8.3523   -3.2451    0.0000 C   0  0  0  0  0  0  0  0  0  0  0  0
    7.3523   -3.2451    0.0000 C   0  0  0  0  0  0  0  0  0  0  0  0
    9.8159   -3.8523    0.0000 C   0  0  0  0  0  0  0  0  0  0  0  0
    5.8159   -4.1315    0.0000 O   0  0  0  0  0  0  0  0  0  0  0  0
    9.8159   -2.7614    0.0000 N   0  0  0  0  0  0  0  0  0  0  0  0
   10.9523   -4.1315    0.0000 N   0  0  0  0  0  0  0  0  0  0  0  0
    3.4708   -0.7083    0.0000 S   0  0  3  0  0  0  0  0  0  0  0  0
    3.4667    0.1167    0.0000 O   0  0  0  0  0  0  0  0  0  0  0  0
    3.4667   -1.5333    0.0000 O   0  0  0  0  0  0  0  0  0  0  0  0
    2.6458   -0.7042    0.0000 O   0  0  0  0  0  0  0  0  0  0  0  0
    1.8208   -0.7042    0.0000 C   0  0  0  0  0  0  0  0  0  0  0  0
    1.1042   -0.2917    0.0000 C   0  0  0  0  0  0  0  0  0  0  0  0
    0.3875   -0.7000    0.0000 O   0  0  0  0  0  0  0  0  0  0  0  0
    3.4708   -0.7083    0.0000 S   0  0  3  0  0  0  0  0  0  0  0  0
    3.4667    0.1167    0.0000 O   0  0  0  0  0  0  0  0  0  0  0  0
    3.4667   -1.5333    0.0000 O   0  0  0  0  0  0  0  0  0  0  0  0
    2.6458   -0.7042    0.0000 O   0  0  0  0  0  0  0  0  0  0  0  0
    1.8208   -0.7042    0.0000 C   0  0  0  0  0  0  0  0  0  0  0  0
    1.1042   -0.2917    0.0000 C   0  0  0  0  0  0  0  0  0  0  0  0
    0.3875   -0.7000    0.0000 O   0  0  0  0  0  0  0  0  0  0  0  0
 16 21  2  0  0  0  0
 19 22  1  0  0  0  0
 16 23  1  0  0  0  0
 22 24  2  0  0  0  0
 22 25  1  0  0  0  0
 15 23  1  0  0  0  0
 11 12  1  0  0  0  0
  1  2  2  0  0  0  0
 12 13  1  0  0  0  0
  2  3  1  0  0  0  0
 13 14  1  0  0  0  0
  3  4  2  0  0  0  0
 14 15  1  0  0  0  0
  4  5  1  0  0  0  0
  5  6  2  0  0  0  0
  1  6  1  0  0  0  0
  6  7  1  0  0  0  0
  3  8  1  0  0  0  0
  7  9  2  0  0  0  0
 26 27  2  0  0  0  0
 26 28  2  0  0  0  0
 26 29  1  0  0  0  0
 29 30  1  0  0  0  0
 30 31  1  0  0  0  0
 31 32  1  0  0  0  0
  7 10  1  0  0  0  0
  8 11  1  0  0  0  0
 16 17  1  0  0  0  0
 17 18  2  0  0  0  0
 18 19  1  0  0  0  0
 19 20  2  0  0  0  0
 20 21  1  0  0  0  0
 33 34  2  0  0  0  0
 33 35  2  0  0  0  0
 33 36  1  0  0  0  0
 36 37  1  0  0  0  0
 37 38  1  0  0  0  0
 38 39  1  0  0  0  0
M  STY  1   1 MUL
M  SLB  1   1   1
M  SAL   1 14  26  27  28  29  30  31  32  33  34  35  36  37  38  39
M  SPA   1  7  26  27  28  29  30  31  32
M  SDI   1  4   -0.2500   -2.1000   -0.2500    0.5500
M  SDI   1  4    4.3000    0.5500    4.3000   -2.1000
M  SMT   1 2
M  END
> <#>
263

> <PLATE>
LAT004

> <ROW>
G

> <COL>
4

> <COORD>
G04

> <LATID>
LAT004G04

> <Supplier>
Sigma

> <Suplier_CAT#>
P 0547

> <Name>
Pentamidine Isethionate

> <Concentration_(mM)>
2.5

> <IC50_(µM)>
22

> <Yeast_Active?>
-

> <Pubchem_CID>
6604151

> <Description>
NMDA glutamate receptor antagonist; neuroprotective agent; antimicrobial agent prescribed for the treatment of AIDS-associated Pneumocystis carinii pneumonia

$$$$
