
  -ISIS-  08130814242D

 21 22  0  0  0  0  0  0  0  0999 V2000
    3.7875    0.6708    0.0000 O   0  0  0  0  0  0  0  0  0  0  0  0
    0.4042    1.0500    0.0000 C   0  0  0  0  0  0  0  0  0  0  0  0
    3.1000    1.0000    0.0000 C   0  0  0  0  0  0  0  0  0  0  0  0
    1.7667    1.0208    0.0000 N   0  0  0  0  0  0  0  0  0  0  0  0
    4.3375    1.2125    0.0000 C   0  0  0  0  0  0  0  0  0  0  0  0
    3.2000    1.7833    0.0000 C   0  0  0  0  0  0  0  0  0  0  0  0
    3.9667    1.9208    0.0000 C   0  0  0  0  0  0  0  0  0  0  0  0
   -2.9500    0.6000    0.0000 C   0  0  0  0  0  0  0  0  0  0  0  0
    2.4292    0.6333    0.0000 C   0  0  0  0  0  0  0  0  0  0  0  0
    1.0875    0.6625    0.0000 N   0  0  0  0  0  0  0  0  0  0  0  0
   -2.9500   -0.1792    0.0000 C   0  0  0  0  0  0  0  0  0  0  0  0
   -2.2958    0.9958    0.0000 C   0  0  0  0  0  0  0  0  0  0  0  0
    0.4042    1.8333    0.0000 O   0  0  0  0  0  0  0  0  0  0  0  0
   -2.2958   -0.5667    0.0000 C   0  0  0  0  0  0  0  0  0  0  0  0
   -0.2500    0.6625    0.0000 C   0  0  0  0  0  0  0  0  0  0  0  0
   -1.6125    0.6000    0.0000 C   0  0  0  0  0  0  0  0  0  0  0  0
   -0.9333    1.0208    0.0000 O   0  0  0  0  0  0  0  0  0  0  0  0
   -1.6125   -0.1792    0.0000 C   0  0  0  0  0  0  0  0  0  0  0  0
   -3.6500    0.9958    0.0000 C   0  0  0  0  0  0  0  0  0  0  0  0
    5.1292    1.1208    0.0000 C   0  0  0  0  0  0  0  0  0  0  0  0
   -3.6333   -0.6000    0.0000 C   0  0  0  0  0  0  0  0  0  0  0  0
  2 10  1  0  0  0  0
  3  1  1  0  0  0  0
  4  9  2  0  0  0  0
  5  1  1  0  0  0  0
  6  3  2  0  0  0  0
  7  5  2  0  0  0  0
  8 12  2  0  0  0  0
  9  3  1  0  0  0  0
 10  4  1  0  0  0  0
 11 14  2  0  0  0  0
 12 16  1  0  0  0  0
 13  2  2  0  0  0  0
 14 18  1  0  0  0  0
 15  2  1  0  0  0  0
 16 17  1  0  0  0  0
 17 15  1  0  0  0  0
 18 16  2  0  0  0  0
 19  8  1  0  0  0  0
 20  5  1  0  0  0  0
 21 11  1  0  0  0  0
  7  6  1  0  0  0  0
 11  8  1  0  0  0  0
M  END
> <#>
604

> <PLATE>
LAT008

> <ROW>
D

> <COL>
7

> <COORD>
D07

> <LATID>
LAT008D07

> <Supplier>
Chembridge

> <Suplier_CAT#>
5521728

> <Name>
Novel

> <Sec_Name>
144_E11

> <Concentration_(mM)>
2.5

> <IC50_(µM)>
8

> <Yeast_Active?>
-

> <Pubchem_CID>
689803

$$$$
