
  -ISIS-  08130814242D

 17 17  0  0  0  0  0  0  0  0999 V2000
    0.4167    0.0833    0.0000 C   0  0  0  0  0  0  0  0  0  0  0  0
    2.0375    0.0958    0.0000 C   0  0  3  0  0  0  0  0  0  0  0  0
   -0.4000    0.5500    0.0000 C   0  0  0  0  0  0  0  0  0  0  0  0
    1.2375    0.5500    0.0000 C   0  0  0  0  0  0  0  0  0  0  0  0
   -1.2125    0.0833    0.0000 C   0  0  0  0  0  0  0  0  0  0  0  0
   -1.2125   -0.8542    0.0000 C   0  0  0  0  0  0  0  0  0  0  0  0
   -2.0208    0.5500    0.0000 C   0  0  0  0  0  0  0  0  0  0  0  0
   -0.4000    1.4958    0.0000 O   0  0  0  0  0  0  0  0  0  0  0  0
    2.8292   -0.3667    0.0000 Cl  0  0  0  0  0  0  0  0  0  0  0  0
    2.5042    0.9000    0.0000 Cl  0  0  0  0  0  0  0  0  0  0  0  0
    1.5667   -0.7167    0.0000 Cl  0  0  0  0  0  0  0  0  0  0  0  0
    1.2375    1.5000    0.0000 N   0  0  0  0  0  0  0  0  0  0  0  0
   -2.0208   -1.3292    0.0000 C   0  0  0  0  0  0  0  0  0  0  0  0
   -2.8333    0.0833    0.0000 C   0  0  0  0  0  0  0  0  0  0  0  0
   -2.8333   -0.8542    0.0000 C   0  0  0  0  0  0  0  0  0  0  0  0
   -0.4000   -1.3292    0.0000 O   0  0  0  0  0  0  0  0  0  0  0  0
   -3.6458    0.5500    0.0000 C   0  0  0  0  0  0  0  0  0  0  0  0
  2  4  1  0  0  0  0
  3  1  1  0  0  0  0
  4  1  2  0  0  0  0
  5  3  1  0  0  0  0
  6  5  2  0  0  0  0
  7  5  1  0  0  0  0
  8  3  2  0  0  0  0
  9  2  1  0  0  0  0
 10  2  1  0  0  0  0
 11  2  1  0  0  0  0
 12  4  1  0  0  0  0
 13  6  1  0  0  0  0
 14  7  2  0  0  0  0
 15 14  1  0  0  0  0
 16  6  1  0  0  0  0
 17 14  1  0  0  0  0
 15 13  2  0  0  0  0
M  END
> <#>
679

> <PLATE>
LAT009

> <ROW>
G

> <COL>
6

> <COORD>
G06

> <LATID>
LAT009G06

> <Supplier>
Chembridge

> <Suplier_CAT#>
5548206

> <Name>
Novel

> <Sec_Name>
162_E07

> <Concentration_(mM)>
2.5

> <IC50_(µM)>
26

> <Yeast_Active?>
+

> <Pubchem_CID>
2249410

$$$$
