
  -ISIS-  08130814242D

 20 21  0  0  0  0  0  0  0  0999 V2000
    2.8167   -1.5125    0.0000 C   0  0  2  0  0  0  0  0  0  0  0  0
    2.8167   -0.6875    0.0000 C   0  0  0  0  0  0  0  0  0  0  0  0
    6.3792   -2.7542    0.0000 N   0  0  0  0  0  0  0  0  0  0  0  0
    5.6667   -3.1625    0.0000 C   0  0  0  0  0  0  0  0  0  0  0  0
    6.3875   -1.9292    0.0000 C   0  0  0  0  0  0  0  0  0  0  0  0
    2.1042   -0.2667    0.0000 C   0  0  2  0  0  0  0  0  0  0  0  0
    3.5292   -1.9250    0.0000 C   0  0  1  0  0  0  0  0  0  0  0  0
    2.1042   -1.9167    0.0000 C   0  0  0  0  0  0  0  0  0  0  0  0
    4.9625   -1.9250    0.0000 C   0  0  3  0  0  0  0  0  0  0  0  0
    4.2417   -1.5125    0.0000 C   0  0  0  0  0  0  0  0  0  0  0  0
    3.5292   -0.2750    0.0000 O   0  0  0  0  0  0  0  0  0  0  0  0
    1.3917   -0.6875    0.0000 C   0  0  0  0  0  0  0  0  0  0  0  0
    7.1042   -1.5167    0.0000 O   0  0  0  0  0  0  0  0  0  0  0  0
    5.6625   -3.9875    0.0000 O   0  0  0  0  0  0  0  0  0  0  0  0
    5.6750   -1.5042    0.0000 C   0  0  0  0  0  0  0  0  0  0  0  0
    4.9542   -2.7500    0.0000 C   0  0  0  0  0  0  0  0  0  0  0  0
    1.3917   -1.5125    0.0000 C   0  0  2  0  0  0  0  0  0  0  0  0
    3.5292   -2.7500    0.0000 O   0  0  0  0  0  0  0  0  0  0  0  0
    2.1000    0.5583    0.0000 C   0  0  0  0  0  0  0  0  0  0  0  0
    0.6792   -1.9167    0.0000 C   0  0  0  0  0  0  0  0  0  0  0  0
  2  1  1  0  0  0  0
  3  4  1  0  0  0  0
  4 16  1  0  0  0  0
  5 15  1  0  0  0  0
  6  2  1  0  0  0  0
  1  7  1  6  0  0  0
  8  1  1  0  0  0  0
  9 10  1  0  0  0  0
 10  7  1  0  0  0  0
 11  2  2  0  0  0  0
 12 17  1  0  0  0  0
 13  5  2  0  0  0  0
 14  4  2  0  0  0  0
 15  9  1  0  0  0  0
 16  9  1  0  0  0  0
 17  8  1  0  0  0  0
  7 18  1  1  0  0  0
  6 19  1  6  0  0  0
 17 20  1  1  0  0  0
 12  6  1  0  0  0  0
  5  3  1  0  0  0  0
M  END
> <#>
170

> <PLATE>
LAT003

> <ROW>
B

> <COL>
3

> <COORD>
B03

> <LATID>
LAT003B03

> <Supplier>
Microsource

> <Suplier_CAT#>
01502112

> <Name>
Cycloheximide

> <Concentration_(mM)>
2.5

> <IC50_(µM)>
0.21

> <Yeast_Active?>
+

> <Pubchem_CID>
2900

> <Description>
Protein Synthesis Inhibitor

$$$$
