
  -ISIS-  08130814242D

 46 44  0  0  0  0  0  0  0  0999 V2000
   11.4417   -3.9833    0.0000 C   0  0  0  0  0  0  0  0  0  0  0  0
   12.1542   -3.5708    0.0000 C   0  0  0  0  0  0  0  0  0  0  0  0
    0.0417   -3.1917    0.0000 C   0  0  0  0  0  0  0  0  0  0  0  0
    0.7542   -2.7792    0.0000 O   0  0  0  0  0  0  0  0  0  0  0  0
    0.0417   -4.0167    0.0000 O   0  0  0  0  0  0  0  0  0  0  0  0
    2.1792   -4.4208    0.0000 C   0  0  0  0  0  0  0  0  0  0  0  0
    0.7542   -4.4292    0.0000 C   0  0  0  0  0  0  0  0  0  0  0  0
    1.4667   -4.0167    0.0000 C   0  0  3  0  0  0  0  0  0  0  0  0
    2.8917   -4.0083    0.0000 C   0  0  3  0  0  0  0  0  0  0  0  0
   10.7292   -4.3958    0.0000 C   0  0  0  0  0  0  0  0  0  0  0  0
    1.4667   -3.1917    0.0000 O   0  0  0  0  0  0  0  0  0  0  0  0
    2.8917   -3.1833    0.0000 O   0  0  0  0  0  0  0  0  0  0  0  0
   -0.6792   -2.7708    0.0000 C   0  0  0  0  0  0  0  0  0  0  0  0
    3.6042   -4.4208    0.0000 C   0  0  0  0  0  0  0  0  0  0  0  0
   10.0167   -3.9917    0.0000 C   0  0  0  0  0  0  0  0  0  0  0  0
    4.3167   -4.0083    0.0000 C   0  0  0  0  0  0  0  0  0  0  0  0
    7.1667   -3.9958    0.0000 C   0  0  0  0  0  0  0  0  0  0  0  0
    7.8792   -4.4083    0.0000 C   0  0  0  0  0  0  0  0  0  0  0  0
    8.5917   -3.9958    0.0000 C   0  0  0  0  0  0  0  0  0  0  0  0
    9.3042   -4.4042    0.0000 C   0  0  0  0  0  0  0  0  0  0  0  0
    5.0292   -4.4167    0.0000 C   0  0  0  0  0  0  0  0  0  0  0  0
    5.7417   -4.0042    0.0000 C   0  0  0  0  0  0  0  0  0  0  0  0
    6.4542   -4.4083    0.0000 C   0  0  0  0  0  0  0  0  0  0  0  0
   11.5375   -6.7292    0.0000 C   0  0  0  0  0  0  0  0  0  0  0  0
   12.2500   -6.3167    0.0000 C   0  0  0  0  0  0  0  0  0  0  0  0
    0.1375   -5.9375    0.0000 C   0  0  0  0  0  0  0  0  0  0  0  0
    0.8500   -5.5250    0.0000 O   0  0  0  0  0  0  0  0  0  0  0  0
    0.1375   -6.7625    0.0000 O   0  0  0  0  0  0  0  0  0  0  0  0
    2.2750   -7.1667    0.0000 C   0  0  0  0  0  0  0  0  0  0  0  0
    0.8500   -7.1750    0.0000 C   0  0  0  0  0  0  0  0  0  0  0  0
    1.5625   -6.7625    0.0000 C   0  0  3  0  0  0  0  0  0  0  0  0
    2.9875   -6.7542    0.0000 C   0  0  3  0  0  0  0  0  0  0  0  0
   10.8250   -7.1417    0.0000 C   0  0  0  0  0  0  0  0  0  0  0  0
    1.5625   -5.9375    0.0000 O   0  0  0  0  0  0  0  0  0  0  0  0
    2.9875   -5.9292    0.0000 O   0  0  0  0  0  0  0  0  0  0  0  0
   -0.5833   -5.5167    0.0000 C   0  0  0  0  0  0  0  0  0  0  0  0
    3.7000   -7.1667    0.0000 C   0  0  0  0  0  0  0  0  0  0  0  0
   10.1125   -6.7375    0.0000 C   0  0  0  0  0  0  0  0  0  0  0  0
    4.4125   -6.7542    0.0000 C   0  0  0  0  0  0  0  0  0  0  0  0
    7.2625   -6.7417    0.0000 C   0  0  0  0  0  0  0  0  0  0  0  0
    7.9750   -7.1542    0.0000 C   0  0  0  0  0  0  0  0  0  0  0  0
    8.6875   -6.7417    0.0000 C   0  0  0  0  0  0  0  0  0  0  0  0
    9.4000   -7.1500    0.0000 C   0  0  0  0  0  0  0  0  0  0  0  0
    5.1250   -7.1625    0.0000 C   0  0  0  0  0  0  0  0  0  0  0  0
    5.8375   -6.7500    0.0000 C   0  0  0  0  0  0  0  0  0  0  0  0
    6.5500   -7.1542    0.0000 C   0  0  0  0  0  0  0  0  0  0  0  0
 20 15  1  0  0  0  0
 21 22  1  0  0  0  0
 22 23  1  0  0  0  0
 23 17  1  0  0  0  0
  2  1  2  0  0  0  0
  3  5  1  0  0  0  0
  4  3  2  0  0  0  0
  5  7  1  0  0  0  0
  6  9  1  0  0  0  0
  7  8  1  0  0  0  0
  8  6  1  0  0  0  0
  9 14  1  0  0  0  0
 10  1  1  0  0  0  0
 11  8  1  0  0  0  0
 12  9  1  0  0  0  0
 13  3  1  0  0  0  0
 14 16  1  0  0  0  0
 15 10  1  0  0  0  0
 16 21  1  0  0  0  0
 17 18  1  0  0  0  0
 18 19  1  0  0  0  0
 19 20  1  0  0  0  0
 25 24  3  0  0  0  0
 26 28  1  0  0  0  0
 27 26  2  0  0  0  0
 28 30  1  0  0  0  0
 29 32  1  0  0  0  0
 30 31  1  0  0  0  0
 31 29  1  0  0  0  0
 32 37  1  0  0  0  0
 33 24  1  0  0  0  0
 34 31  1  0  0  0  0
 35 32  1  0  0  0  0
 36 26  1  0  0  0  0
 37 39  1  0  0  0  0
 38 33  1  0  0  0  0
 39 44  1  0  0  0  0
 40 41  1  0  0  0  0
 41 42  1  0  0  0  0
 42 43  1  0  0  0  0
 43 38  1  0  0  0  0
 44 45  1  0  0  0  0
 45 46  1  0  0  0  0
 46 40  1  0  0  0  0
M  END
> <#>
14

> <PLATE>
LAT001

> <ROW>
F

> <COL>
3

> <COORD>
F03

> <LATID>
LAT001F03

> <Supplier>
Microsource

> <Suplier_CAT#>
00210025

> <Name>
Avocatin A

> <Concentration_(mM)>
2.5

> <IC50_(µM)>
5

> <Yeast_Active?>
+

> <Pubchem_CID>
6710728

> <Source>
Persea spp

$$$$
