
  -ISIS-  08130814242D

 29 31  0  0  0  0  0  0  0  0999 V2000
    5.6167    3.0875    0.0000 C   0  0  0  0  0  0  0  0  0  0  0  0
    4.8667    3.0875    0.0000 C   0  0  0  0  0  0  0  0  0  0  0  0
    5.9917    3.7375    0.0000 C   0  0  0  0  0  0  0  0  0  0  0  0
    6.7417    3.7375    0.0000 O   0  0  0  0  0  0  0  0  0  0  0  0
    8.2417    1.1375    0.0000 N   0  0  0  0  0  0  0  0  0  0  0  0
    4.4917    3.7375    0.0000 C   0  0  0  0  0  0  0  0  0  0  0  0
    5.6167    4.3792    0.0000 C   0  0  0  0  0  0  0  0  0  0  0  0
    4.8667    4.3792    0.0000 C   0  0  0  0  0  0  0  0  0  0  0  0
    6.7417    2.4375    0.0000 N   0  0  0  0  0  0  0  0  0  0  0  0
    5.9917    2.4375    0.0000 C   0  0  0  0  0  0  0  0  0  0  0  0
    7.1167    4.3792    0.0000 C   0  0  0  0  0  0  0  0  0  0  0  0
    9.3667    4.3792    0.0000 C   0  0  0  0  0  0  0  0  0  0  0  0
    7.8667    1.7875    0.0000 C   0  0  0  0  0  0  0  0  0  0  0  0
    7.8667    4.3792    0.0000 C   0  0  0  0  0  0  0  0  0  0  0  0
   10.1167    4.3792    0.0000 F   0  0  0  0  0  0  0  0  0  0  0  0
    8.9917    3.7375    0.0000 C   0  0  0  0  0  0  0  0  0  0  0  0
    8.9917    5.0292    0.0000 C   0  0  0  0  0  0  0  0  0  0  0  0
    8.2417    3.7375    0.0000 C   0  0  0  0  0  0  0  0  0  0  0  0
    8.2417    5.0292    0.0000 C   0  0  0  0  0  0  0  0  0  0  0  0
    4.4917    2.4375    0.0000 C   0  0  0  0  0  0  0  0  0  0  0  0
    7.1167    1.7875    0.0000 C   0  0  0  0  0  0  0  0  0  0  0  0
    8.9917    1.1375    0.0000 C   0  0  0  0  0  0  0  0  0  0  0  0
    3.7417    3.7375    0.0000 C   0  0  0  0  0  0  0  0  0  0  0  0
    8.2417    2.4375    0.0000 C   0  0  0  0  0  0  0  0  0  0  0  0
    3.7417    2.4375    0.0000 C   0  0  0  0  0  0  0  0  0  0  0  0
    9.3667    1.7875    0.0000 C   0  0  0  0  0  0  0  0  0  0  0  0
    3.3667    3.0875    0.0000 C   0  0  0  0  0  0  0  0  0  0  0  0
    8.9917    2.4375    0.0000 C   0  0  0  0  0  0  0  0  0  0  0  0
   10.8667    1.1375    0.0000 Cl  0  0  0  0  0  0  0  0  0  0  0  0
  2  1  2  0  0  0  0
  3  1  1  0  0  0  0
  4  3  1  0  0  0  0
  5 13  2  0  0  0  0
  6  2  1  0  0  0  0
  7  3  2  0  0  0  0
  8  7  1  0  0  0  0
  9 10  1  0  0  0  0
 10  1  1  0  0  0  0
 11  4  1  0  0  0  0
 12 17  1  0  0  0  0
 13 21  1  0  0  0  0
 14 11  1  0  0  0  0
 15 12  1  0  0  0  0
 16 18  1  0  0  0  0
 17 19  2  0  0  0  0
 18 14  2  0  0  0  0
 19 14  1  0  0  0  0
 20  2  1  0  0  0  0
 21  9  1  0  0  0  0
 22  5  1  0  0  0  0
 23  6  1  0  0  0  0
 24 13  1  0  0  0  0
 25 20  2  0  0  0  0
 26 28  1  0  0  0  0
 27 25  1  0  0  0  0
 28 24  2  0  0  0  0
  6  8  2  0  0  0  0
 27 23  2  0  0  0  0
 16 12  2  0  0  0  0
 26 22  2  0  0  0  0
M  END
> <#>
1571

> <PLATE>
LAT020

> <ROW>
C

> <COL>
8

> <COORD>
C08

> <LATID>
LAT020C08

> <Supplier>
Chembridge

> <Suplier_CAT#>
9068637

> <Name>
Novel

> <Concentration_(mM)>
2.5

> <IC50_(µM)>
>100

> <Yeast_Active?>
-

> <Pubchem_CID>
3162220

$$$$
