
  -ISIS-  08130814242D

 36 37  0  0  0  0  0  0  0  0999 V2000
   -0.8458   -0.1167    0.0000 N   0  0  3  0  0  0  0  0  0  0  0  0
   -0.5625   -0.5167    0.0000 C   0  0  0  0  0  0  0  0  0  0  0  0
   -0.8458   -0.9167    0.0000 N   0  0  3  0  0  0  0  0  0  0  0  0
   -1.3208   -0.2542    0.0000 C   0  0  0  0  0  0  0  0  0  0  0  0
   -1.3208   -0.7792    0.0000 C   0  0  0  0  0  0  0  0  0  0  0  0
   -0.1833    1.8458    0.0000 C   0  0  0  0  0  0  0  0  0  0  0  0
   -1.0458    2.1208    0.0000 C   0  0  0  0  0  0  0  0  0  0  0  0
   -0.5625    2.2458    0.0000 C   0  0  0  0  0  0  0  0  0  0  0  0
   -0.6833    0.3833    0.0000 C   0  0  0  0  0  0  0  0  0  0  0  0
   -0.8458    1.2625    0.0000 C   0  0  0  0  0  0  0  0  0  0  0  0
   -0.3625    1.3625    0.0000 C   0  0  0  0  0  0  0  0  0  0  0  0
   -1.1833    1.6458    0.0000 C   0  0  0  0  0  0  0  0  0  0  0  0
   -1.0208    0.7625    0.0000 C   0  0  0  0  0  0  0  0  0  0  0  0
   -0.6833   -1.4167    0.0000 C   0  0  0  0  0  0  0  0  0  0  0  0
   -0.0625   -0.5375    0.0000 N   0  0  0  0  0  0  0  0  0  0  0  0
   -1.3833    2.5000    0.0000 C   0  0  3  0  0  0  0  0  0  0  0  0
    0.3375    1.9458    0.0000 C   0  0  3  0  0  0  0  0  0  0  0  0
   -1.5000    0.6625    0.0000 O   0  0  0  0  0  0  0  0  0  0  0  0
   -0.4458    2.7458    0.0000 O   0  0  0  0  0  0  0  0  0  0  0  0
   -1.0208   -1.8000    0.0000 C   0  0  0  0  0  0  0  0  0  0  0  0
   -0.8625   -2.2792    0.0000 N   0  0  3  0  0  0  0  0  0  0  0  0
   -1.7625   -0.0167    0.0000 C   0  0  0  0  0  0  0  0  0  0  0  0
   -1.7625   -1.0167    0.0000 C   0  0  0  0  0  0  0  0  0  0  0  0
    0.4167    1.4208    0.0000 C   0  0  0  0  0  0  0  0  0  0  0  0
    0.2375    2.4458    0.0000 C   0  0  0  0  0  0  0  0  0  0  0  0
    0.8375    2.0208    0.0000 C   0  0  0  0  0  0  0  0  0  0  0  0
   -1.7625    2.1625    0.0000 C   0  0  0  0  0  0  0  0  0  0  0  0
   -1.7208    2.8833    0.0000 C   0  0  0  0  0  0  0  0  0  0  0  0
   -1.0000    2.8458    0.0000 C   0  0  0  0  0  0  0  0  0  0  0  0
   -1.2000   -2.6375    0.0000 C   0  0  0  0  0  0  0  0  0  0  0  0
   -0.3833   -2.4000    0.0000 C   0  0  0  0  0  0  0  0  0  0  0  0
   -2.2000   -0.7542    0.0000 C   0  0  0  0  0  0  0  0  0  0  0  0
   -2.2000   -0.2792    0.0000 C   0  0  0  0  0  0  0  0  0  0  0  0
   -0.0458   -2.0375    0.0000 C   0  0  0  0  0  0  0  0  0  0  0  0
   -1.0625   -3.1167    0.0000 C   0  0  0  0  0  0  0  0  0  0  0  0
    1.7000   -0.4375    0.0000 Br  0  0  0  0  0  0  0  0  0  0  0  0
  2  1  1  0  0  0  0
  3  2  1  0  0  0  0
  4  1  1  0  0  0  0
  5  4  2  0  0  0  0
  6 11  2  0  0  0  0
  7 12  1  0  0  0  0
  8  7  2  0  0  0  0
  9  1  1  0  0  0  0
 10 13  1  0  0  0  0
 11 10  1  0  0  0  0
 12 10  2  0  0  0  0
 13  9  1  0  0  0  0
 14  3  1  0  0  0  0
 15  2  2  0  0  0  0
 16  7  1  0  0  0  0
 17  6  1  0  0  0  0
 18 13  2  0  0  0  0
 19  8  1  0  0  0  0
 20 14  1  0  0  0  0
 21 20  1  0  0  0  0
 22  4  1  0  0  0  0
 23  5  1  0  0  0  0
 24 17  1  0  0  0  0
 25 17  1  0  0  0  0
 26 17  1  0  0  0  0
 27 16  1  0  0  0  0
 28 16  1  0  0  0  0
 29 16  1  0  0  0  0
 30 21  1  0  0  0  0
 31 21  1  0  0  0  0
 32 33  1  0  0  0  0
 33 22  2  0  0  0  0
 34 31  1  0  0  0  0
 35 30  1  0  0  0  0
  5  3  1  0  0  0  0
 23 32  2  0  0  0  0
  6  8  1  0  0  0  0
M  END
> <#>
1209

> <PLATE>
LAT016

> <ROW>
A

> <COL>
3

> <COORD>
A03

> <LATID>
LAT016A03

> <Supplier>
Chembridge

> <Suplier_CAT#>
5649238

> <Name>
Novel

> <Concentration_(mM)>
2.5

> <IC50_(µM)>
>100

> <Yeast_Active?>
-

> <Pubchem_CID>
1047177

$$$$
