
  -ISIS-  08130814242D

 19 19  0  0  0  0  0  0  0  0999 V2000
    2.6281    2.9120    0.0000 C   0  0  0  0  0  0  0  0  0  0  0  0
    1.5465    2.2853    0.0000 C   0  0  0  0  0  0  0  0  0  0  0  0
    1.5484    1.0353    0.0000 C   0  0  0  0  0  0  0  0  0  0  0  0
    0.4669    0.4086    0.0000 C   0  0  0  0  0  0  0  0  0  0  0  0
   -0.6166    1.0319    0.0000 C   0  0  0  0  0  0  0  0  0  0  0  0
   -0.6186    2.2819    0.0000 C   0  0  0  0  0  0  0  0  0  0  0  0
    0.4630    2.9086    0.0000 C   0  0  0  0  0  0  0  0  0  0  0  0
   -1.6982    0.4052    0.0000 O   0  0  0  0  0  0  0  0  0  0  0  0
   -2.7817    1.0286    0.0000 P   0  0  3  0  0  0  0  0  0  0  0  0
   -2.1584    2.1121    0.0000 S   0  0  0  0  0  0  0  0  0  0  0  0
   -3.4050   -0.0549    0.0000 N   0  0  0  0  0  0  0  0  0  0  0  0
   -2.7783   -1.1365    0.0000 C   0  0  3  0  0  0  0  0  0  0  0  0
   -3.4016   -2.2200    0.0000 C   0  0  0  0  0  0  0  0  0  0  0  0
   -1.5283   -1.1346    0.0000 C   0  0  0  0  0  0  0  0  0  0  0  0
   -3.8652    1.6519    0.0000 O   0  0  0  0  0  0  0  0  0  0  0  0
   -4.9467    1.0252    0.0000 C   0  0  0  0  0  0  0  0  0  0  0  0
    0.4645   -0.8336    0.0000 N   0  3  0  0  0  0  0  0  0  0  0  0
   -0.6190   -1.4603    0.0000 O   0  0  0  0  0  0  0  0  0  0  0  0
    1.4669   -1.3694    0.0000 O   0  5  0  0  0  0  0  0  0  0  0  0
  1  2  1  0  0  0  0
  2  3  2  0  0  0  0
  3  4  1  0  0  0  0
  4  5  2  0  0  0  0
  5  6  1  0  0  0  0
  6  7  2  0  0  0  0
  2  7  1  0  0  0  0
  5  8  1  0  0  0  0
  8  9  1  0  0  0  0
  9 10  2  0  0  0  0
  9 11  1  0  0  0  0
 11 12  1  0  0  0  0
 12 13  1  0  0  0  0
 12 14  1  0  0  0  0
  9 15  1  0  0  0  0
 15 16  1  0  0  0  0
  4 17  1  0  0  0  0
 17 18  2  0  0  0  0
 17 19  1  0  0  0  0
M  CHG  2  17   1  19  -1
M  END
> <#>
381

> <PLATE>
LAT005

> <ROW>
E

> <COL>
9

> <COORD>
E09

> <LATID>
LAT005E09

> <Supplier>
Fluka

> <Suplier_CAT#>
3992

> <Name>
Amiprofos Methyl

> <Concentration_(mM)>
2.5

> <IC50_(µM)>
2.4

> <Yeast_Active?>
-

> <Pubchem_CID>
100524

> <Description>
Herbicide

$$$$
