
  -ISIS-  08130814242D

 22 24  0  0  0  0  0  0  0  0999 V2000
    1.0042    0.8958    0.0000 C   0  0  0  0  0  0  0  0  0  0  0  0
    1.0042    1.5958    0.0000 N   0  0  0  0  0  0  0  0  0  0  0  0
    1.6042    0.5333    0.0000 N   0  0  0  0  0  0  0  0  0  0  0  0
    2.2292    1.5708    0.0000 N   0  0  0  0  0  0  0  0  0  0  0  0
    1.6042    1.9333    0.0000 C   0  0  0  0  0  0  0  0  0  0  0  0
    0.3875    0.5333    0.0000 C   0  0  0  0  0  0  0  0  0  0  0  0
    2.2042    0.8708    0.0000 C   0  0  0  0  0  0  0  0  0  0  0  0
    2.8292    0.5125    0.0000 C   0  0  0  0  0  0  0  0  0  0  0  0
    2.8292   -0.1667    0.0000 C   0  0  0  0  0  0  0  0  0  0  0  0
    0.3875   -0.1500    0.0000 C   0  0  0  0  0  0  0  0  0  0  0  0
    1.6042    2.6333    0.0000 N   0  0  0  0  0  0  0  0  0  0  0  0
    3.4292   -0.5292    0.0000 C   0  0  0  0  0  0  0  0  0  0  0  0
    0.9875   -0.5042    0.0000 O   0  0  0  0  0  0  0  0  0  0  0  0
   -0.2125    0.8958    0.0000 C   0  0  0  0  0  0  0  0  0  0  0  0
   -0.2125   -0.5042    0.0000 C   0  0  0  0  0  0  0  0  0  0  0  0
    4.0292   -0.1667    0.0000 C   0  0  0  0  0  0  0  0  0  0  0  0
    3.4042   -1.2292    0.0000 C   0  0  0  0  0  0  0  0  0  0  0  0
   -0.8333    0.5500    0.0000 C   0  0  0  0  0  0  0  0  0  0  0  0
   -0.8333   -0.1667    0.0000 C   0  0  0  0  0  0  0  0  0  0  0  0
    4.0042   -1.5667    0.0000 C   0  0  0  0  0  0  0  0  0  0  0  0
    4.6292   -0.5042    0.0000 C   0  0  0  0  0  0  0  0  0  0  0  0
    4.6292   -1.2292    0.0000 C   0  0  0  0  0  0  0  0  0  0  0  0
  2  1  1  0  0  0  0
  3  1  2  0  0  0  0
  4  7  2  0  0  0  0
  5  2  2  0  0  0  0
  6  1  1  0  0  0  0
  7  3  1  0  0  0  0
  8  7  1  0  0  0  0
  9  8  2  0  0  0  0
 10  6  2  0  0  0  0
 11  5  1  0  0  0  0
 12  9  1  0  0  0  0
 13 10  1  0  0  0  0
 14  6  1  0  0  0  0
 15 10  1  0  0  0  0
 16 12  2  0  0  0  0
 17 12  1  0  0  0  0
 18 14  2  0  0  0  0
 19 18  1  0  0  0  0
 20 17  2  0  0  0  0
 21 16  1  0  0  0  0
 22 20  1  0  0  0  0
  4  5  1  0  0  0  0
 19 15  2  0  0  0  0
 22 21  2  0  0  0  0
M  END
> <#>
1993

> <PLATE>
LAT025

> <ROW>
A

> <COL>
11

> <COORD>
A11

> <LATID>
LAT025A11

> <Supplier>
Chembridge

> <Suplier_CAT#>
5530911

> <Sec_Name>
152_D11

> <Concentration_(mM)>
2.5

> <IC50_(µM)>
>100

> <Yeast_Active?>
-

> <Pubchem_CID>
NULL

$$$$
