
  -ISIS-  08130814242D

 18 19  0  0  0  0  0  0  0  0999 V2000
   -0.8125   -0.2500    0.0000 C   0  0  0  0  0  0  0  0  0  0  0  0
   -3.4708    0.3333    0.0000 C   0  0  0  0  0  0  0  0  0  0  0  0
   -1.4000   -0.9292    0.0000 C   0  0  0  0  0  0  0  0  0  0  0  0
   -1.9833    0.8208    0.0000 N   0  0  0  0  0  0  0  0  0  0  0  0
   -1.0833    0.6208    0.0000 C   0  0  0  0  0  0  0  0  0  0  0  0
   -3.7625    1.1958    0.0000 C   0  0  0  0  0  0  0  0  0  0  0  0
   -2.6000    0.1458    0.0000 C   0  0  0  0  0  0  0  0  0  0  0  0
   -4.1958   -0.2292    0.0000 S   0  0  0  0  0  0  0  0  0  0  0  0
   -4.9583    0.3333    0.0000 C   0  0  0  0  0  0  0  0  0  0  0  0
    0.0292   -0.4667    0.0000 C   0  0  0  0  0  0  0  0  0  0  0  0
   -4.6625    1.1958    0.0000 C   0  0  0  0  0  0  0  0  0  0  0  0
   -1.1333   -1.7875    0.0000 O   0  0  0  0  0  0  0  0  0  0  0  0
   -0.4333    1.2708    0.0000 C   0  0  0  0  0  0  0  0  0  0  0  0
    0.6792    0.1625    0.0000 C   0  0  0  0  0  0  0  0  0  0  0  0
   -2.3000   -0.7875    0.0000 O   0  0  0  0  0  0  0  0  0  0  0  0
    0.4042    1.0500    0.0000 C   0  0  0  0  0  0  0  0  0  0  0  0
    1.5500   -0.0792    0.0000 Br  0  0  0  0  0  0  0  0  0  0  0  0
   -3.2500    1.9583    0.0000 C   0  0  0  0  0  0  0  0  0  0  0  0
  2  7  1  0  0  0  0
  3  1  1  0  0  0  0
  4  5  1  0  0  0  0
  5  1  2  0  0  0  0
  6  2  2  0  0  0  0
  7  4  2  0  0  0  0
  8  2  1  0  0  0  0
  9  8  1  0  0  0  0
 10  1  1  0  0  0  0
 11  6  1  0  0  0  0
 12  3  2  0  0  0  0
 13  5  1  0  0  0  0
 14 10  2  0  0  0  0
 15  3  1  0  0  0  0
 16 14  1  0  0  0  0
 17 14  1  0  0  0  0
 18  6  1  0  0  0  0
 13 16  2  0  0  0  0
 11  9  2  0  0  0  0
M  END
> <#>
589

> <PLATE>
LAT008

> <ROW>
E

> <COL>
5

> <COORD>
E05

> <LATID>
LAT008E05

> <Supplier>
Chembridge

> <Suplier_CAT#>
5470636

> <Name>
Novel

> <Sec_Name>
134_G06

> <Concentration_(mM)>
2.5

> <IC50_(µM)>
50

> <Yeast_Active?>
-

> <Pubchem_CID>
867275

$$$$
