
  -ISIS-  08130814242D

 21 22  0  0  0  0  0  0  0  0999 V2000
   -0.9208    0.3000    0.0000 C   0  0  0  0  0  0  0  0  0  0  0  0
   -1.8833    0.8625    0.0000 N   0  0  0  0  0  0  0  0  0  0  0  0
    1.0375   -0.8375    0.0000 C   0  0  0  0  0  0  0  0  0  0  0  0
    1.6792   -0.8375    0.0000 C   0  0  0  0  0  0  0  0  0  0  0  0
    0.7167   -0.2792    0.0000 C   0  0  0  0  0  0  0  0  0  0  0  0
   -2.2000    1.4208    0.0000 C   0  0  0  0  0  0  0  0  0  0  0  0
   -1.2458    0.8625    0.0000 N   0  0  0  0  0  0  0  0  0  0  0  0
    0.0542   -0.2792    0.0000 O   0  0  0  0  0  0  0  0  0  0  0  0
   -3.1833    0.8625    0.0000 N   0  0  0  0  0  0  0  0  0  0  0  0
   -1.2458   -0.2792    0.0000 O   0  0  0  0  0  0  0  0  0  0  0  0
   -0.2625    0.3000    0.0000 C   0  0  0  0  0  0  0  0  0  0  0  0
    1.0375    0.3000    0.0000 C   0  0  0  0  0  0  0  0  0  0  0  0
    2.0000   -0.2792    0.0000 C   0  0  0  0  0  0  0  0  0  0  0  0
   -2.8625    1.4208    0.0000 C   0  0  0  0  0  0  0  0  0  0  0  0
    0.7000   -1.4167    0.0000 Cl  0  0  0  0  0  0  0  0  0  0  0  0
    1.6792    0.3000    0.0000 C   0  0  0  0  0  0  0  0  0  0  0  0
    2.6542   -0.2792    0.0000 Cl  0  0  0  0  0  0  0  0  0  0  0  0
   -3.8208    0.8625    0.0000 C   0  0  0  0  0  0  0  0  0  0  0  0
   -3.1833    1.9833    0.0000 C   0  0  0  0  0  0  0  0  0  0  0  0
   -4.1458    1.4208    0.0000 C   0  0  0  0  0  0  0  0  0  0  0  0
   -3.8208    1.9833    0.0000 C   0  0  0  0  0  0  0  0  0  0  0  0
  2  7  1  0  0  0  0
  3  5  2  0  0  0  0
  4  3  1  0  0  0  0
  5  8  1  0  0  0  0
  6  2  2  0  0  0  0
  7  1  1  0  0  0  0
  8 11  1  0  0  0  0
  9 14  1  0  0  0  0
 10  1  2  0  0  0  0
 11  1  1  0  0  0  0
 12  5  1  0  0  0  0
 13 16  1  0  0  0  0
 14  6  1  0  0  0  0
 15  3  1  0  0  0  0
 16 12  2  0  0  0  0
 17 13  1  0  0  0  0
 18  9  2  0  0  0  0
 19 14  2  0  0  0  0
 20 21  2  0  0  0  0
 21 19  1  0  0  0  0
 13  4  2  0  0  0  0
 20 18  1  0  0  0  0
M  END
> <#>
830

> <PLATE>
LAT011

> <ROW>
F

> <COL>
5

> <COORD>
F05

> <LATID>
LAT011F05

> <Supplier>
Chembridge

> <Suplier_CAT#>
5632400

> <Name>
Novel

> <Sec_Name>
193_F04

> <Concentration_(mM)>
2.5

> <IC50_(µM)>
0.063

> <Yeast_Active?>
-

> <Pubchem_CID>
5390158

$$$$
