
  -ISIS-  08130814242D

 21 22  0  0  0  0  0  0  0  0999 V2000
    6.2292   -2.9542    0.0000 C   0  0  0  0  0  0  0  0  0  0  0  0
    5.5125   -4.1958    0.0000 N   0  0  0  0  0  0  0  0  0  0  0  0
    5.5125   -2.5417    0.0000 N   0  0  0  0  0  0  0  0  0  0  0  0
    4.8000   -3.7833    0.0000 C   0  0  0  0  0  0  0  0  0  0  0  0
    7.6542   -2.9500    0.0000 N   0  0  0  0  0  0  0  0  0  0  0  0
    6.9417   -2.5375    0.0000 C   0  0  0  0  0  0  0  0  0  0  0  0
    6.2292   -3.7833    0.0000 C   0  0  0  0  0  0  0  0  0  0  0  0
    4.8000   -2.9542    0.0000 C   0  0  0  0  0  0  0  0  0  0  0  0
    8.4792   -2.9500    0.0000 C   0  0  0  0  0  0  0  0  0  0  0  0
    4.0792   -4.1875    0.0000 N   0  0  3  0  0  0  0  0  0  0  0  0
    6.9375   -1.7125    0.0000 O   0  0  0  0  0  0  0  0  0  0  0  0
    6.9417   -4.1917    0.0000 N   0  0  0  0  0  0  0  0  0  0  0  0
    4.0792   -2.5417    0.0000 Cl  0  0  0  0  0  0  0  0  0  0  0  0
    8.8875   -2.2292    0.0000 N   0  0  0  0  0  0  0  0  0  0  0  0
    9.0625   -3.5292    0.0000 N   0  0  0  0  0  0  0  0  0  0  0  0
    3.3625   -3.7792    0.0000 C   0  0  0  0  0  0  0  0  0  0  0  0
    4.2500   -4.8833    0.0000 C   0  0  0  0  0  0  0  0  0  0  0  0
    3.7250   -5.4958    0.0000 C   0  0  0  0  0  0  0  0  0  0  0  0
    2.6958   -3.9625    0.0000 C   0  0  0  0  0  0  0  0  0  0  0  0
    2.4125   -4.7208    0.0000 C   0  0  0  0  0  0  0  0  0  0  0  0
    2.8750   -5.4250    0.0000 C   0  0  0  0  0  0  0  0  0  0  0  0
  2  7  2  0  0  0  0
  3  1  2  0  0  0  0
  4  2  1  0  0  0  0
  5  6  1  0  0  0  0
  6  1  1  0  0  0  0
  7  1  1  0  0  0  0
  8  3  1  0  0  0  0
  9  5  2  0  0  0  0
 10  4  1  0  0  0  0
 11  6  2  0  0  0  0
 12  7  1  0  0  0  0
 13  8  1  0  0  0  0
 14  9  1  0  0  0  0
 15  9  1  0  0  0  0
 16 10  1  0  0  0  0
 17 10  1  0  0  0  0
 18 17  1  0  0  0  0
 19 16  1  0  0  0  0
 20 19  1  0  0  0  0
 21 18  1  0  0  0  0
  8  4  2  0  0  0  0
 20 21  1  0  0  0  0
M  END
> <#>
198

> <PLATE>
LAT003

> <ROW>
F

> <COL>
6

> <COORD>
F06

> <LATID>
LAT003F06

> <Supplier>
Sigma

> <Suplier_CAT#>
A 9561

> <Name>
5-(N,N-Hexamethylene)Amiloride

> <Concentration_(mM)>
2.5

> <IC50_(µM)>
19

> <Yeast_Active?>
-

> <Pubchem_CID>
1794

> <Description>
Na+/ H+ antiport inhibitor

$$$$
