
  -ISIS-  08130814242D

 25 27  0  0  0  0  0  0  0  0999 V2000
    1.2292   -0.8375    0.0000 C   0  0  0  0  0  0  0  0  0  0  0  0
    0.2667   -1.5792    0.0000 N   0  0  0  0  0  0  0  0  0  0  0  0
    1.7000   -0.2667    0.0000 S   0  0  0  0  0  0  0  0  0  0  0  0
    1.5375   -1.5000    0.0000 C   0  0  0  0  0  0  0  0  0  0  0  0
    0.8667   -2.0167    0.0000 N   0  0  0  0  0  0  0  0  0  0  0  0
    0.5042   -0.8667    0.0000 C   0  0  0  0  0  0  0  0  0  0  0  0
    3.6292    0.1625    0.0000 C   0  0  0  0  0  0  0  0  0  0  0  0
    2.5875    0.9333    0.0000 N   0  0  0  0  0  0  0  0  0  0  0  0
    4.8167    0.6958    0.0000 C   0  0  0  0  0  0  0  0  0  0  0  0
    4.0792    0.7708    0.0000 C   0  0  0  0  0  0  0  0  0  0  0  0
    2.8875    0.2458    0.0000 C   0  0  0  0  0  0  0  0  0  0  0  0
    1.4000    0.4125    0.0000 C   0  0  0  0  0  0  0  0  0  0  0  0
    5.1167    0.0000    0.0000 C   0  0  0  0  0  0  0  0  0  0  0  0
    1.8375    1.0125    0.0000 C   0  0  0  0  0  0  0  0  0  0  0  0
    3.9375   -0.5042    0.0000 C   0  0  0  0  0  0  0  0  0  0  0  0
    4.6792   -0.6000    0.0000 C   0  0  0  0  0  0  0  0  0  0  0  0
    5.2667    1.2958    0.0000 Br  0  0  0  0  0  0  0  0  0  0  0  0
    3.7792    1.4500    0.0000 O   0  0  0  0  0  0  0  0  0  0  0  0
    4.9792   -1.2792    0.0000 Cl  0  0  0  0  0  0  0  0  0  0  0  0
    2.1875   -1.8167    0.0000 C   0  0  0  0  0  0  0  0  0  0  0  0
    0.0667   -0.2542    0.0000 C   0  0  0  0  0  0  0  0  0  0  0  0
    0.6500    0.4958    0.0000 C   0  0  0  0  0  0  0  0  0  0  0  0
    1.5375    1.7000    0.0000 C   0  0  0  0  0  0  0  0  0  0  0  0
    0.3500    1.1833    0.0000 C   0  0  0  0  0  0  0  0  0  0  0  0
    0.7875    1.7833    0.0000 C   0  0  0  0  0  0  0  0  0  0  0  0
  2  6  2  0  0  0  0
  3  1  1  0  0  0  0
  4  1  2  0  0  0  0
  5  4  1  0  0  0  0
  6  1  1  0  0  0  0
  7 11  1  0  0  0  0
  8 14  1  0  0  0  0
  9 10  1  0  0  0  0
 10  7  2  0  0  0  0
 11  8  2  0  0  0  0
 12  3  1  0  0  0  0
 13 16  1  0  0  0  0
 14 12  1  0  0  0  0
 15  7  1  0  0  0  0
 16 15  2  0  0  0  0
 17  9  1  0  0  0  0
 18 10  1  0  0  0  0
 19 16  1  0  0  0  0
 20  4  1  0  0  0  0
 21  6  1  0  0  0  0
 22 12  2  0  0  0  0
 23 14  2  0  0  0  0
 24 22  1  0  0  0  0
 25 24  2  0  0  0  0
  5  2  1  0  0  0  0
 23 25  1  0  0  0  0
 13  9  2  0  0  0  0
M  END
> <#>
639

> <PLATE>
LAT008

> <ROW>
G

> <COL>
11

> <COORD>
G11

> <LATID>
LAT008G11

> <Supplier>
Chembridge

> <Suplier_CAT#>
5489941

> <Name>
Novel

> <Sec_Name>
148_G10

> <Concentration_(mM)>
2.5

> <IC50_(µM)>
50

> <Yeast_Active?>
+

> <Pubchem_CID>
NULL

$$$$
