
  -ISIS-  08130814242D

 12 12  0  0  0  0  0  0  0  0999 V2000
    4.5500   -3.5917    0.0000 C   0  0  0  0  0  0  0  0  0  0  0  0
    4.5500   -4.4167    0.0000 C   0  0  0  0  0  0  0  0  0  0  0  0
    5.9667   -4.4167    0.0000 C   0  0  0  0  0  0  0  0  0  0  0  0
    5.9667   -3.5917    0.0000 C   0  0  0  0  0  0  0  0  0  0  0  0
    5.2542   -4.8250    0.0000 C   0  0  0  0  0  0  0  0  0  0  0  0
    5.2542   -3.1750    0.0000 C   0  0  0  0  0  0  0  0  0  0  0  0
    5.2542   -2.3500    0.0000 O   0  0  0  0  0  0  0  0  0  0  0  0
    5.2542   -5.6500    0.0000 O   0  0  0  0  0  0  0  0  0  0  0  0
    3.8292   -3.1792    0.0000 Cl  0  0  0  0  0  0  0  0  0  0  0  0
    3.8292   -4.8292    0.0000 Cl  0  0  0  0  0  0  0  0  0  0  0  0
    6.6875   -3.1792    0.0000 Cl  0  0  0  0  0  0  0  0  0  0  0  0
    6.6875   -4.8292    0.0000 Cl  0  0  0  0  0  0  0  0  0  0  0  0
  2  1  2  0  0  0  0
  3  4  2  0  0  0  0
  4  6  1  0  0  0  0
  5  2  1  0  0  0  0
  6  1  1  0  0  0  0
  7  6  2  0  0  0  0
  8  5  2  0  0  0  0
  9  1  1  0  0  0  0
 10  2  1  0  0  0  0
 11  4  1  0  0  0  0
 12  3  1  0  0  0  0
  5  3  1  0  0  0  0
M  END
> <#>
143

> <PLATE>
LAT002

> <ROW>
G

> <COL>
9

> <COORD>
G09

> <LATID>
LAT002G09

> <Supplier>
Microsource

> <Suplier_CAT#>
01504212

> <Name>
Chloranil

> <Concentration_(mM)>
2.5

> <IC50_(µM)>
61

> <Yeast_Active?>
-

> <Pubchem_CID>
8371

> <Description>
Antipsoriatic

$$$$
