
  -ISIS-  08130814242D

 21 22  0  0  0  0  0  0  0  0999 V2000
   -0.1458   -0.1042    0.0000 C   0  0  0  0  0  0  0  0  0  0  0  0
    1.3542   -0.5292    0.0000 C   0  0  0  0  0  0  0  0  0  0  0  0
    0.3792   -0.4042    0.0000 C   0  0  0  0  0  0  0  0  0  0  0  0
    0.9042   -0.1375    0.0000 C   0  0  0  0  0  0  0  0  0  0  0  0
   -0.1458    0.5125    0.0000 C   0  0  0  0  0  0  0  0  0  0  0  0
   -0.6625   -0.4042    0.0000 C   0  0  0  0  0  0  0  0  0  0  0  0
   -0.6625    0.8125    0.0000 C   0  0  0  0  0  0  0  0  0  0  0  0
   -1.1833    0.5125    0.0000 C   0  0  0  0  0  0  0  0  0  0  0  0
   -1.1833   -0.1042    0.0000 C   0  0  0  0  0  0  0  0  0  0  0  0
    1.9000   -0.2500    0.0000 C   0  0  0  0  0  0  0  0  0  0  0  0
    1.3167   -1.1292    0.0000 C   0  0  0  0  0  0  0  0  0  0  0  0
    0.3792   -1.0292    0.0000 O   0  0  0  0  0  0  0  0  0  0  0  0
    0.3792    0.8125    0.0000 O   0  0  0  0  0  0  0  0  0  0  0  0
    1.8875    0.3958    0.0000 Cl  0  0  0  0  0  0  0  0  0  0  0  0
    0.8542   -1.5000    0.0000 F   0  0  0  0  0  0  0  0  0  0  0  0
   -1.7208    0.8125    0.0000 O   0  0  0  0  0  0  0  0  0  0  0  0
   -1.7000   -0.4292    0.0000 C   0  0  0  0  0  0  0  0  0  0  0  0
    2.3542   -1.1875    0.0000 C   0  0  0  0  0  0  0  0  0  0  0  0
    2.4000   -0.5875    0.0000 C   0  0  0  0  0  0  0  0  0  0  0  0
    1.8167   -1.4500    0.0000 C   0  0  0  0  0  0  0  0  0  0  0  0
   -1.7000   -1.0500    0.0000 C   0  0  0  0  0  0  0  0  0  0  0  0
  2  4  1  0  0  0  0
  3  1  1  0  0  0  0
  4  3  1  0  0  0  0
  5  1  2  0  0  0  0
  6  1  1  0  0  0  0
  7  5  1  0  0  0  0
  8  9  1  0  0  0  0
  9  6  2  0  0  0  0
 10  2  2  0  0  0  0
 11  2  1  0  0  0  0
 12  3  2  0  0  0  0
 13  5  1  0  0  0  0
 14 10  1  0  0  0  0
 15 11  1  0  0  0  0
 16  8  1  0  0  0  0
 17  9  1  0  0  0  0
 18 20  1  0  0  0  0
 19 10  1  0  0  0  0
 20 11  2  0  0  0  0
 21 17  1  0  0  0  0
  7  8  2  0  0  0  0
 18 19  2  0  0  0  0
M  END
> <#>
1296

> <PLATE>
LAT017

> <ROW>
H

> <COL>
3

> <COORD>
H03

> <LATID>
LAT017H03

> <Supplier>
Chembridge

> <Suplier_CAT#>
6946309

> <Name>
Novel

> <Concentration_(mM)>
2.5

> <IC50_(µM)>
83

> <Yeast_Active?>
-

> <Pubchem_CID>
801086

$$$$
