
  -ISIS-  08130814242D

 26 28  0  0  0  0  0  0  0  0999 V2000
   -2.2458   -0.2292    0.0000 N   0  0  0  0  0  0  0  0  0  0  0  0
   -2.0333   -0.9292    0.0000 N   0  0  3  0  0  0  0  0  0  0  0  0
   -1.0208   -0.2792    0.0000 C   0  0  0  0  0  0  0  0  0  0  0  0
   -1.6125    0.1958    0.0000 C   0  0  0  0  0  0  0  0  0  0  0  0
   -1.3125   -0.9875    0.0000 C   0  0  0  0  0  0  0  0  0  0  0  0
    1.1167    0.2208    0.0000 C   0  0  0  0  0  0  0  0  0  0  0  0
    0.2042   -0.6542    0.0000 N   0  0  0  0  0  0  0  0  0  0  0  0
   -1.8833    0.8958    0.0000 C   0  0  0  0  0  0  0  0  0  0  0  0
   -0.3000   -0.1042    0.0000 C   0  0  0  0  0  0  0  0  0  0  0  0
   -2.5208   -1.4792    0.0000 C   0  0  0  0  0  0  0  0  0  0  0  0
    0.9167   -0.4875    0.0000 N   0  0  0  0  0  0  0  0  0  0  0  0
    0.6000    0.7500    0.0000 O   0  0  0  0  0  0  0  0  0  0  0  0
   -2.4333    2.3000    0.0000 C   0  0  0  0  0  0  0  0  0  0  0  0
   -1.4000    1.4833    0.0000 C   0  0  0  0  0  0  0  0  0  0  0  0
   -2.6208    1.0125    0.0000 C   0  0  0  0  0  0  0  0  0  0  0  0
   -1.6708    2.1833    0.0000 C   0  0  0  0  0  0  0  0  0  0  0  0
   -2.9000    1.7125    0.0000 C   0  0  0  0  0  0  0  0  0  0  0  0
    1.8375    0.4000    0.0000 N   0  0  0  0  0  0  0  0  0  0  0  0
   -2.6833    3.0208    0.0000 C   0  0  3  0  0  0  0  0  0  0  0  0
   -2.3000   -2.1792    0.0000 C   0  0  0  0  0  0  0  0  0  0  0  0
   -3.2500   -1.3292    0.0000 C   0  0  0  0  0  0  0  0  0  0  0  0
   -2.2000    3.5708    0.0000 C   0  0  0  0  0  0  0  0  0  0  0  0
   -3.4208    3.1500    0.0000 C   0  0  0  0  0  0  0  0  0  0  0  0
   -3.7458   -1.8792    0.0000 C   0  0  0  0  0  0  0  0  0  0  0  0
   -2.7958   -2.7292    0.0000 C   0  0  0  0  0  0  0  0  0  0  0  0
   -3.4958   -2.5792    0.0000 C   0  0  0  0  0  0  0  0  0  0  0  0
  2  1  1  0  0  0  0
  3  4  1  0  0  0  0
  4  1  2  0  0  0  0
  5  2  1  0  0  0  0
  6 11  1  0  0  0  0
  7  9  2  0  0  0  0
  8  4  1  0  0  0  0
  9  3  1  0  0  0  0
 10  2  1  0  0  0  0
 11  7  1  0  0  0  0
 12  6  2  0  0  0  0
 13 17  1  0  0  0  0
 14  8  2  0  0  0  0
 15  8  1  0  0  0  0
 16 14  1  0  0  0  0
 17 15  2  0  0  0  0
 18  6  1  0  0  0  0
 19 13  1  0  0  0  0
 20 10  1  0  0  0  0
 21 10  2  0  0  0  0
 22 19  1  0  0  0  0
 23 19  1  0  0  0  0
 24 21  1  0  0  0  0
 25 20  2  0  0  0  0
 26 24  2  0  0  0  0
  3  5  2  0  0  0  0
 13 16  2  0  0  0  0
 26 25  1  0  0  0  0
M  END
> <#>
1068

> <PLATE>
LAT014

> <ROW>
D

> <COL>
5

> <COORD>
D05

> <LATID>
LAT014D05

> <Supplier>
Chembridge

> <Suplier_CAT#>
5662197

> <Name>
Novel

> <Concentration_(mM)>
2.5

> <IC50_(µM)>
90

> <Yeast_Active?>
-

> <Pubchem_CID>
680818

$$$$
