
  -ISIS-  08130814242D

 21 23  0  0  0  0  0  0  0  0999 V2000
   -1.1625    1.0333    0.0000 C   0  0  0  0  0  0  0  0  0  0  0  0
   -1.9458    1.4958    0.0000 C   0  0  0  0  0  0  0  0  0  0  0  0
   -0.3625    1.5125    0.0000 C   0  0  0  0  0  0  0  0  0  0  0  0
   -2.7208    1.0333    0.0000 C   0  0  0  0  0  0  0  0  0  0  0  0
   -1.1625    0.1333    0.0000 C   0  0  0  0  0  0  0  0  0  0  0  0
   -1.9458   -0.3292    0.0000 O   0  0  0  0  0  0  0  0  0  0  0  0
    0.4167    1.0500    0.0000 C   0  0  0  0  0  0  0  0  0  0  0  0
   -2.7208    0.1333    0.0000 C   0  0  0  0  0  0  0  0  0  0  0  0
   -3.5000    1.4958    0.0000 C   0  0  0  0  0  0  0  0  0  0  0  0
   -1.9458    2.3958    0.0000 O   0  0  0  0  0  0  0  0  0  0  0  0
   -0.3625    2.4333    0.0000 O   0  0  0  0  0  0  0  0  0  0  0  0
    1.2000    1.5125    0.0000 C   0  0  0  0  0  0  0  0  0  0  0  0
   -3.5000   -0.3292    0.0000 C   0  0  0  0  0  0  0  0  0  0  0  0
   -4.2833    1.0333    0.0000 C   0  0  0  0  0  0  0  0  0  0  0  0
   -4.2833    0.1333    0.0000 C   0  0  0  0  0  0  0  0  0  0  0  0
   -5.0625    1.4708    0.0000 Cl  0  0  0  0  0  0  0  0  0  0  0  0
    0.4167    0.1500    0.0000 C   0  0  0  0  0  0  0  0  0  0  0  0
    1.2000    2.4125    0.0000 C   0  0  0  0  0  0  0  0  0  0  0  0
    1.9792    1.0500    0.0000 C   0  0  0  0  0  0  0  0  0  0  0  0
    1.2000   -0.3042    0.0000 C   0  0  0  0  0  0  0  0  0  0  0  0
    1.9792    0.1500    0.0000 C   0  0  0  0  0  0  0  0  0  0  0  0
  2  1  1  0  0  0  0
  3  1  1  0  0  0  0
  4  2  1  0  0  0  0
  5  1  2  0  0  0  0
  6  5  1  0  0  0  0
  7  3  1  0  0  0  0
  8  6  1  0  0  0  0
  9  4  1  0  0  0  0
 10  2  2  0  0  0  0
 11  3  2  0  0  0  0
 12  7  2  0  0  0  0
 13  8  1  0  0  0  0
 14  9  2  0  0  0  0
 15 13  2  0  0  0  0
 16 14  1  0  0  0  0
 17  7  1  0  0  0  0
 18 12  1  0  0  0  0
 19 12  1  0  0  0  0
 20 17  2  0  0  0  0
 21 20  1  0  0  0  0
  8  4  2  0  0  0  0
 15 14  1  0  0  0  0
 19 21  2  0  0  0  0
M  END
> <#>
558

> <PLATE>
LAT007

> <ROW>
F

> <COL>
11

> <COORD>
F11

> <LATID>
LAT007F11

> <Supplier>
Chembridge

> <Suplier_CAT#>
5472499

> <Name>
Novel

> <Sec_Name>
136_G06

> <Concentration_(mM)>
2.5

> <IC50_(µM)>
6

> <Yeast_Active?>
+

> <Pubchem_CID>
745339

$$$$
