
  -ISIS-  08130814242D

 23 23  0  0  0  0  0  0  0  0999 V2000
    3.1542   -4.2792    0.0000 C   0  0  0  0  0  0  0  0  0  0  0  0
    3.1542   -5.1042    0.0000 C   0  0  0  0  0  0  0  0  0  0  0  0
    3.8667   -3.8667    0.0000 C   0  0  0  0  0  0  0  0  0  0  0  0
    3.8667   -5.5167    0.0000 C   0  0  0  0  0  0  0  0  0  0  0  0
    4.5792   -4.2792    0.0000 C   0  0  0  0  0  0  0  0  0  0  0  0
    8.1542   -5.5167    0.0000 N   0  0  0  0  0  0  0  0  0  0  0  0
    4.5792   -5.1042    0.0000 C   0  0  0  0  0  0  0  0  0  0  0  0
    1.7250   -2.6292    0.0000 C   0  0  0  0  0  0  0  0  0  0  0  0
    6.0167   -5.1042    0.0000 N   0  0  0  0  0  0  0  0  0  0  0  0
    1.7250   -1.8042    0.0000 C   0  0  0  0  0  0  0  0  0  0  0  0
    2.4417   -5.5167    0.0000 Br  0  0  0  0  0  0  0  0  0  0  0  0
    2.4417   -3.8667    0.0000 O   0  0  0  0  0  0  0  0  0  0  0  0
    3.8667   -3.0417    0.0000 O   0  0  0  0  0  0  0  0  0  0  0  0
    7.4417   -5.1042    0.0000 C   0  0  0  0  0  0  0  0  0  0  0  0
    5.3000   -5.5167    0.0000 C   0  0  0  0  0  0  0  0  0  0  0  0
    6.7292   -5.5167    0.0000 C   0  0  0  0  0  0  0  0  0  0  0  0
    2.4417   -3.0417    0.0000 C   0  0  0  0  0  0  0  0  0  0  0  0
    8.8750   -5.1042    0.0000 C   0  0  0  0  0  0  0  0  0  0  0  0
    7.4417   -4.2792    0.0000 C   0  0  0  0  0  0  0  0  0  0  0  0
    4.5792   -2.6292    0.0000 C   0  0  0  0  0  0  0  0  0  0  0  0
    8.8750   -4.2792    0.0000 C   0  0  0  0  0  0  0  0  0  0  0  0
    8.1542   -3.8667    0.0000 C   0  0  0  0  0  0  0  0  0  0  0  0
    6.0125   -1.3917    0.0000 Cl  0  0  0  0  0  0  0  0  0  0  0  0
  2  1  2  0  0  0  0
  3  1  1  0  0  0  0
  4  2  1  0  0  0  0
  5  3  2  0  0  0  0
  6 14  2  0  0  0  0
  7  5  1  0  0  0  0
  8 17  1  0  0  0  0
  9 15  1  0  0  0  0
 10  8  2  0  0  0  0
 11  2  1  0  0  0  0
 12  1  1  0  0  0  0
 13  3  1  0  0  0  0
 14 16  1  0  0  0  0
 15  7  1  0  0  0  0
 16  9  1  0  0  0  0
 17 12  1  0  0  0  0
 18  6  1  0  0  0  0
 19 14  1  0  0  0  0
 20 13  1  0  0  0  0
 21 22  1  0  0  0  0
 22 19  2  0  0  0  0
  4  7  2  0  0  0  0
 18 21  2  0  0  0  0
M  END
> <#>
1493

> <PLATE>
LAT019

> <ROW>
E

> <COL>
8

> <COORD>
E08

> <LATID>
LAT019E08

> <Supplier>
Chembridge

> <Suplier_CAT#>
9012347

> <Name>
Novel

> <Concentration_(mM)>
2.5

> <IC50_(µM)>
inactive

> <Yeast_Active?>
-

> <Pubchem_CID>
6457306

$$$$
