
  -ISIS-  08130814242D

 24 26  0  0  0  0  0  0  0  0999 V2000
    1.8667   -0.6667    0.0000 C   0  0  3  0  0  0  0  0  0  0  0  0
    2.2167   -1.3292    0.0000 C   0  0  0  0  0  0  0  0  0  0  0  0
    1.6917   -1.8667    0.0000 N   0  0  3  0  0  0  0  0  0  0  0  0
    1.1292   -0.8000    0.0000 C   0  0  0  0  0  0  0  0  0  0  0  0
    1.0250   -1.5417    0.0000 C   0  0  0  0  0  0  0  0  0  0  0  0
    2.7125   -0.0917    0.0000 C   0  0  0  0  0  0  0  0  0  0  0  0
    3.4292   -0.4750    0.0000 C   0  0  0  0  0  0  0  0  0  0  0  0
    4.0667   -0.0667    0.0000 C   0  0  0  0  0  0  0  0  0  0  0  0
    1.2500   -3.0917    0.0000 C   0  0  0  0  0  0  0  0  0  0  0  0
    0.6750   -3.5667    0.0000 C   0  0  0  0  0  0  0  0  0  0  0  0
    2.9625   -1.4375    0.0000 O   0  0  0  0  0  0  0  0  0  0  0  0
    4.7292   -0.4167    0.0000 C   0  0  0  0  0  0  0  0  0  0  0  0
    3.4625   -1.1000    0.0000 O   0  0  0  0  0  0  0  0  0  0  0  0
    1.8250   -2.6042    0.0000 C   0  0  0  0  0  0  0  0  0  0  0  0
    1.6292    0.1833    0.0000 O   0  0  0  0  0  0  0  0  0  0  0  0
    0.5417   -0.3292    0.0000 C   0  0  0  0  0  0  0  0  0  0  0  0
    4.7625   -1.1667    0.0000 O   0  0  0  0  0  0  0  0  0  0  0  0
    0.3292   -1.8167    0.0000 C   0  0  0  0  0  0  0  0  0  0  0  0
    4.0292    0.6833    0.0000 C   0  0  0  0  0  0  0  0  0  0  0  0
    5.3625   -0.0125    0.0000 C   0  0  0  0  0  0  0  0  0  0  0  0
   -0.1583   -0.6125    0.0000 C   0  0  0  0  0  0  0  0  0  0  0  0
   -0.2625   -1.3542    0.0000 C   0  0  0  0  0  0  0  0  0  0  0  0
    4.6625    1.0833    0.0000 C   0  0  0  0  0  0  0  0  0  0  0  0
    5.3292    0.7375    0.0000 C   0  0  0  0  0  0  0  0  0  0  0  0
  2  1  1  0  0  0  0
  3  2  1  0  0  0  0
  4  1  1  0  0  0  0
  5  4  2  0  0  0  0
  6  1  1  0  0  0  0
  7  6  1  0  0  0  0
  8  7  1  0  0  0  0
  9 14  1  0  0  0  0
 10  9  3  0  0  0  0
 11  2  2  0  0  0  0
 12  8  1  0  0  0  0
 13  7  2  0  0  0  0
 14  3  1  0  0  0  0
 15  1  1  0  0  0  0
 16  4  1  0  0  0  0
 17 12  1  0  0  0  0
 18  5  1  0  0  0  0
 19  8  2  0  0  0  0
 20 12  2  0  0  0  0
 21 16  2  0  0  0  0
 22 21  1  0  0  0  0
 23 19  1  0  0  0  0
 24 23  2  0  0  0  0
  5  3  1  0  0  0  0
 22 18  2  0  0  0  0
 20 24  1  0  0  0  0
M  END
> <#>
1309

> <PLATE>
LAT017

> <ROW>
E

> <COL>
5

> <COORD>
E05

> <LATID>
LAT017E05

> <Supplier>
Chembridge

> <Suplier_CAT#>
6683595

> <Name>
Novel

> <Concentration_(mM)>
2.5

> <IC50_(µM)>
100

> <Yeast_Active?>
-

> <Pubchem_CID>
805635

$$$$
