
  -ISIS-  08130814242D

 15 16  0  0  0  0  0  0  0  0999 V2000
    2.6443   -1.7646    0.0000 C   0  0  0  0  0  0  0  0  0  0  0  0
    3.7268   -2.3896    0.0000 C   0  0  0  0  0  0  0  0  0  0  0  0
    4.8093   -1.7646    0.0000 C   0  0  0  0  0  0  0  0  0  0  0  0
    5.8919   -2.3896    0.0000 C   0  0  0  0  0  0  0  0  0  0  0  0
    5.8919   -3.6396    0.0000 C   0  0  0  0  0  0  0  0  0  0  0  0
    4.8093   -4.2646    0.0000 C   0  0  0  0  0  0  0  0  0  0  0  0
    3.7268   -3.6396    0.0000 C   0  0  0  0  0  0  0  0  0  0  0  0
    2.6443   -0.5146    0.0000 O   0  0  0  0  0  0  0  0  0  0  0  0
    1.5617   -2.3896    0.0000 C   0  0  0  0  0  0  0  0  0  0  0  0
    1.5617   -3.6396    0.0000 C   0  0  0  0  0  0  0  0  0  0  0  0
    0.4792   -4.2646    0.0000 C   0  0  0  0  0  0  0  0  0  0  0  0
   -0.6033   -3.6396    0.0000 C   0  0  0  0  0  0  0  0  0  0  0  0
   -0.6033   -2.3896    0.0000 C   0  0  0  0  0  0  0  0  0  0  0  0
    0.4792   -1.7646    0.0000 C   0  0  0  0  0  0  0  0  0  0  0  0
    6.9744   -4.2646    0.0000 O   0  0  0  0  0  0  0  0  0  0  0  0
  1  2  1  0  0  0  0
  2  3  1  0  0  0  0
  3  4  2  0  0  0  0
  4  5  1  0  0  0  0
  5  6  2  0  0  0  0
  6  7  1  0  0  0  0
  2  7  2  0  0  0  0
  9 10  1  0  0  0  0
 10 11  2  0  0  0  0
 11 12  1  0  0  0  0
 12 13  2  0  0  0  0
 13 14  1  0  0  0  0
  9 14  2  0  0  0  0
  1  8  2  0  0  0  0
  1  9  1  0  0  0  0
  5 15  1  0  0  0  0
M  END
> <#>
341

> <PLATE>
LAT005

> <ROW>
E

> <COL>
4

> <COORD>
E04

> <LATID>
LAT005E04

> <Supplier>
Aldrich

> <Suplier_CAT#>
H20202

> <Name>
4-Hydroxybenzophenone

> <Concentration_(mM)>
2.5

> <IC50_(µM)>
>100

> <Yeast_Active?>
-

> <Pubchem_CID>
14347

$$$$
