
  -ISIS-  08130814242D

 32 32  0  0  0  0  0  0  0  0999 V2000
    1.5542   -1.6500    0.0000 C   0  0  3  0  0  0  0  0  0  0  0  0
    2.2750   -1.2292    0.0000 C   0  0  0  0  0  0  0  0  0  0  0  0
    2.2750   -0.4042    0.0000 C   0  0  0  0  0  0  0  0  0  0  0  0
    2.9875    0.0083    0.0000 C   0  0  0  0  0  0  0  0  0  0  0  0
    8.7292    0.0458    0.0000 N   0  3  3  0  0  0  0  0  0  0  0  0
    1.1375   -0.9292    0.0000 C   0  0  0  0  0  0  0  0  0  0  0  0
    3.7042   -0.4042    0.0000 C   0  0  0  0  0  0  0  0  0  0  0  0
    2.9875   -1.6417    0.0000 C   0  0  0  0  0  0  0  0  0  0  0  0
    0.1750   -0.9000    0.0000 C   0  0  3  0  0  0  0  0  0  0  0  0
    3.7042   -1.2292    0.0000 C   0  0  0  0  0  0  0  0  0  0  0  0
    8.3167    0.7583    0.0000 C   0  0  0  0  0  0  0  0  0  0  0  0
    8.7250    1.4750    0.0000 C   0  0  0  0  0  0  0  0  0  0  0  0
    4.4250    0.0125    0.0000 O   0  0  0  0  0  0  0  0  0  0  0  0
    0.8292   -2.0667    0.0000 C   0  0  0  0  0  0  0  0  0  0  0  0
    1.9667   -2.3667    0.0000 C   0  0  0  0  0  0  0  0  0  0  0  0
    8.0167   -0.3792    0.0000 C   0  0  0  0  0  0  0  0  0  0  0  0
    9.4500    0.4625    0.0000 C   0  0  0  0  0  0  0  0  0  0  0  0
    9.1542   -0.6750    0.0000 C   0  0  0  0  0  0  0  0  0  0  0  0
    6.5792   -0.3917    0.0000 O   0  0  0  0  0  0  0  0  0  0  0  0
    2.9875    0.8333    0.0000 C   0  0  0  0  0  0  0  0  0  0  0  0
   -0.1958   -1.4917    0.0000 C   0  0  0  0  0  0  0  0  0  0  0  0
   -0.5375   -0.8792    0.0000 C   0  0  0  0  0  0  0  0  0  0  0  0
   -0.1625   -0.3125    0.0000 C   0  0  0  0  0  0  0  0  0  0  0  0
    7.2917    0.0333    0.0000 C   0  0  0  0  0  0  0  0  0  0  0  0
    5.1417   -0.4000    0.0000 C   0  0  0  0  0  0  0  0  0  0  0  0
    5.8542    0.0208    0.0000 C   0  0  0  0  0  0  0  0  0  0  0  0
    9.5500    1.4833    0.0000 C   0  0  0  0  0  0  0  0  0  0  0  0
    8.3042    2.1833    0.0000 C   0  0  0  0  0  0  0  0  0  0  0  0
    8.7125    2.9000    0.0000 C   0  0  0  0  0  0  0  0  0  0  0  0
    9.9542    2.1958    0.0000 C   0  0  0  0  0  0  0  0  0  0  0  0
    9.5417    2.9083    0.0000 C   0  0  0  0  0  0  0  0  0  0  0  0
    9.0125   -1.3417    0.0000 Cl  0  5  0  0  0  0  0  0  0  0  0  0
  2  1  1  0  0  0  0
  3  2  1  0  0  0  0
  4  3  2  0  0  0  0
  5 16  1  0  0  0  0
  6  1  1  0  0  0  0
  7 10  2  0  0  0  0
  8  2  2  0  0  0  0
  9  6  1  0  0  0  0
 10  8  1  0  0  0  0
 11  5  1  0  0  0  0
 12 11  1  0  0  0  0
 13  7  1  0  0  0  0
 14  1  1  0  0  0  0
 15  1  1  0  0  0  0
 16 24  1  0  0  0  0
 17  5  1  0  0  0  0
 18  5  1  0  0  0  0
 19 26  1  0  0  0  0
 20  4  1  0  0  0  0
 21  9  1  0  0  0  0
 22  9  1  0  0  0  0
 23  9  1  0  0  0  0
 24 19  1  0  0  0  0
 25 13  1  0  0  0  0
 26 25  1  0  0  0  0
 27 12  2  0  0  0  0
 28 12  1  0  0  0  0
 29 28  2  0  0  0  0
 30 27  1  0  0  0  0
 31 30  2  0  0  0  0
  7  4  1  0  0  0  0
 29 31  1  0  0  0  0
M  CHG  2   5   1  32  -1
M  END
> <#>
75

> <PLATE>
LAT001

> <ROW>
C

> <COL>
11

> <COORD>
C11

> <LATID>
LAT001C11

> <Supplier>
Microsource

> <Suplier_CAT#>
01503253

> <Name>
Methylbenzethonium Chloride

> <Concentration_(mM)>
2.5

> <IC50_(µM)>
14

> <Yeast_Active?>
+

> <Pubchem_CID>
4135

> <Description>
Antiseptic (Topical)

$$$$
