
  -ISIS-  08130814242D

 17 18  0  0  0  0  0  0  0  0999 V2000
   -3.1500   -0.0917    0.0000 N   0  0  3  0  0  0  0  0  0  0  0  0
   -3.1500   -1.0292    0.0000 C   0  0  0  0  0  0  0  0  0  0  0  0
   -3.9583   -1.5000    0.0000 C   0  0  0  0  0  0  0  0  0  0  0  0
   -2.3458   -1.4875    0.0000 C   0  0  0  0  0  0  0  0  0  0  0  0
   -2.4208    0.3833    0.0000 C   0  0  0  0  0  0  0  0  0  0  0  0
   -3.8958    0.3833    0.0000 C   0  0  0  0  0  0  0  0  0  0  0  0
   -1.5458    0.0625    0.0000 C   0  0  0  0  0  0  0  0  0  0  0  0
   -2.3333   -2.4292    0.0000 C   0  0  0  0  0  0  0  0  0  0  0  0
   -3.9458   -2.4375    0.0000 C   0  0  0  0  0  0  0  0  0  0  0  0
   -3.8958    1.1333    0.0000 C   0  0  0  0  0  0  0  0  0  0  0  0
   -2.4208    1.1333    0.0000 C   0  0  0  0  0  0  0  0  0  0  0  0
   -0.8458    0.6833    0.0000 N   0  0  0  0  0  0  0  0  0  0  0  0
   -3.1458   -2.9042    0.0000 C   0  0  0  0  0  0  0  0  0  0  0  0
   -1.0208    1.5958    0.0000 O   0  0  0  0  0  0  0  0  0  0  0  0
   -1.5458   -1.0042    0.0000 C   0  0  0  0  0  0  0  0  0  0  0  0
   -4.7708   -1.0292    0.0000 C   0  0  0  0  0  0  0  0  0  0  0  0
   -3.1458   -3.8375    0.0000 C   0  0  0  0  0  0  0  0  0  0  0  0
  2  1  1  0  0  0  0
  3  2  2  0  0  0  0
  4  2  1  0  0  0  0
  5  1  1  0  0  0  0
  6  1  1  0  0  0  0
  7  5  1  0  0  0  0
  8  4  2  0  0  0  0
  9  3  1  0  0  0  0
 10  6  2  0  0  0  0
 11  5  2  0  0  0  0
 12  7  2  0  0  0  0
 13  8  1  0  0  0  0
 14 12  1  0  0  0  0
 15  4  1  0  0  0  0
 16  3  1  0  0  0  0
 17 13  1  0  0  0  0
 10 11  1  0  0  0  0
 13  9  2  0  0  0  0
M  END
> <#>
1748

> <PLATE>
LAT022

> <ROW>
D

> <COL>
10

> <COORD>
D10

> <LATID>
LAT022D10

> <Supplier>
Chembridge

> <Suplier_CAT#>
5466629

> <Name>
Novel

> <Sec_Name>
131_A09

> <Concentration_(mM)>
2.5

> <IC50_(µM)>
22

> <Yeast_Active?>
-

> <Pubchem_CID>
3259606

$$$$
