
  -ISIS-  08130814242D

 21 23  0  0  0  0  0  0  0  0999 V2000
   -0.8500    1.1208    0.0000 C   0  0  0  0  0  0  0  0  0  0  0  0
   -1.5958    0.0333    0.0000 S   0  0  0  0  0  0  0  0  0  0  0  0
   -1.5958    2.1625    0.0000 C   0  0  0  0  0  0  0  0  0  0  0  0
    0.4667    1.1208    0.0000 C   0  0  0  0  0  0  0  0  0  0  0  0
    1.1042   -0.0292    0.0000 N   0  0  0  0  0  0  0  0  0  0  0  0
    2.4167   -0.0292    0.0000 C   0  0  0  0  0  0  0  0  0  0  0  0
   -2.8500    1.7708    0.0000 C   0  0  0  0  0  0  0  0  0  0  0  0
   -2.8500    0.4333    0.0000 C   0  0  0  0  0  0  0  0  0  0  0  0
    3.1042   -1.1375    0.0000 N   0  0  3  0  0  0  0  0  0  0  0  0
    3.1042    1.1208    0.0000 S   0  0  0  0  0  0  0  0  0  0  0  0
    1.1042    2.2500    0.0000 O   0  0  0  0  0  0  0  0  0  0  0  0
   -1.1958    3.4208    0.0000 Cl  0  0  0  0  0  0  0  0  0  0  0  0
    4.4167   -3.4167    0.0000 O   0  0  0  0  0  0  0  0  0  0  0  0
   -3.9625    2.4333    0.0000 C   0  0  0  0  0  0  0  0  0  0  0  0
    4.4167   -1.1375    0.0000 C   0  0  0  0  0  0  0  0  0  0  0  0
    2.4167   -2.2792    0.0000 C   0  0  0  0  0  0  0  0  0  0  0  0
   -3.9625   -0.2292    0.0000 C   0  0  0  0  0  0  0  0  0  0  0  0
    3.1042   -3.4167    0.0000 C   0  0  0  0  0  0  0  0  0  0  0  0
    5.0792   -2.2792    0.0000 C   0  0  0  0  0  0  0  0  0  0  0  0
   -5.1000    1.7708    0.0000 C   0  0  0  0  0  0  0  0  0  0  0  0
   -5.1000    0.4333    0.0000 C   0  0  0  0  0  0  0  0  0  0  0  0
  2  1  1  0  0  0  0
  3  1  2  0  0  0  0
  4  1  1  0  0  0  0
  5  4  1  0  0  0  0
  6  5  1  0  0  0  0
  7  3  1  0  0  0  0
  8  2  1  0  0  0  0
  9  6  1  0  0  0  0
 10  6  2  0  0  0  0
 11  4  2  0  0  0  0
 12  3  1  0  0  0  0
 13 18  1  0  0  0  0
 14  7  1  0  0  0  0
 15  9  1  0  0  0  0
 16  9  1  0  0  0  0
 17  8  1  0  0  0  0
 18 16  1  0  0  0  0
 19 15  1  0  0  0  0
 20 14  2  0  0  0  0
 21 17  2  0  0  0  0
  7  8  2  0  0  0  0
 21 20  1  0  0  0  0
 19 13  1  0  0  0  0
M  END
> <#>
1991

> <PLATE>
LAT025

> <ROW>
G

> <COL>
10

> <COORD>
G10

> <LATID>
LAT025G10

> <Supplier>
Chembridge

> <Suplier_CAT#>
5526247

> <Sec_Name>
147_D07

> <Concentration_(mM)>
2.5

> <IC50_(µM)>
inactive

> <Yeast_Active?>
-

> <Pubchem_CID>
916874

$$$$
