
  -ISIS-  08130814242D

 27 29  0  0  0  0  0  0  0  0999 V2000
    7.5315   -2.2161    0.0000 C   0  0  0  0  0  0  0  0  0  0  0  0
    8.2419   -2.6287    0.0000 C   0  0  0  0  0  0  0  0  0  0  0  0
    8.9523   -2.2198    0.0000 C   0  0  0  0  0  0  0  0  0  0  0  0
    8.9535   -1.3986    0.0000 C   0  0  0  0  0  0  0  0  0  0  0  0
    8.2384   -0.9878    0.0000 C   0  0  0  0  0  0  0  0  0  0  0  0
    7.5310   -1.3990    0.0000 C   0  0  0  0  0  0  0  0  0  0  0  0
    6.8183   -2.6330    0.0000 N   0  0  0  0  0  0  0  0  0  0  0  0
    9.6662   -2.6334    0.0000 Cl  0  0  0  0  0  0  0  0  0  0  0  0
    7.5333   -3.8712    0.0000 C   0  0  0  0  0  0  0  0  0  0  0  0
    7.5333   -4.7004    0.0000 C   0  0  0  0  0  0  0  0  0  0  0  0
    8.3219   -4.9567    0.0000 N   0  0  3  0  0  0  0  0  0  0  0  0
    8.8093   -4.2858    0.0000 C   0  0  0  0  0  0  0  0  0  0  0  0
    8.3219   -3.6151    0.0000 N   0  0  0  0  0  0  0  0  0  0  0  0
    6.1069   -3.8708    0.0000 N   0  0  0  0  0  0  0  0  0  0  0  0
    6.1057   -4.6982    0.0000 C   0  0  0  0  0  0  0  0  0  0  0  0
    6.8206   -5.1110    0.0000 N   0  0  0  0  0  0  0  0  0  0  0  0
    6.8188   -3.4580    0.0000 C   0  0  0  0  0  0  0  0  0  0  0  0
    8.3167   -5.7792    0.0000 C   0  0  3  0  0  0  0  0  0  0  0  0
    7.5996   -6.1871    0.0000 C   0  0  0  0  0  0  0  0  0  0  0  0
    9.0285   -6.1962    0.0000 C   0  0  0  0  0  0  0  0  0  0  0  0
    5.3909   -5.1101    0.0000 N   0  0  0  0  0  0  0  0  0  0  0  0
    4.6708   -4.6958    0.0000 C   0  0  2  0  0  0  0  0  0  0  0  0
    3.9542   -5.1042    0.0000 C   0  0  0  0  0  0  0  0  0  0  0  0
    3.2375   -4.6917    0.0000 O   0  0  0  0  0  0  0  0  0  0  0  0
    4.6725   -3.8708    0.0000 C   0  0  3  0  0  0  0  0  0  0  0  0
    3.9542   -3.4583    0.0000 C   0  0  0  0  0  0  0  0  0  0  0  0
    5.1703   -3.3124    0.0000 C   0  0  0  0  0  0  0  0  0  0  0  0
  1  2  2  0  0  0  0
  7  1  1  0  0  0  0
 14 15  2  0  0  0  0
  3  4  2  0  0  0  0
 15 16  1  0  0  0  0
 16 10  2  0  0  0  0
  3  8  1  0  0  0  0
  9 17  2  0  0  0  0
 17 14  1  0  0  0  0
  9 10  1  0  0  0  0
 11 18  1  0  0  0  0
 18 19  1  0  0  0  0
  4  5  1  0  0  0  0
 18 20  1  0  0  0  0
 17  7  1  0  0  0  0
  2  3  1  0  0  0  0
 15 21  1  0  0  0  0
  5  6  2  0  0  0  0
 21 22  1  0  0  0  0
  6  1  1  0  0  0  0
 22 23  1  0  0  0  0
 10 11  1  0  0  0  0
 23 24  1  0  0  0  0
 11 12  1  0  0  0  0
 22 25  1  6  0  0  0
 12 13  2  0  0  0  0
 25 26  1  0  0  0  0
 13  9  1  0  0  0  0
 25 27  1  0  0  0  0
M  END
> <#>
266

> <PLATE>
LAT004

> <ROW>
B

> <COL>
5

> <COORD>
B05

> <LATID>
LAT004B05

> <Supplier>
Sigma

> <Suplier_CAT#>
P 4484

> <Name>
Purvalanol A

> <Concentration_(mM)>
2.5

> <IC50_(µM)>
4.7

> <Yeast_Active?>
-

> <Pubchem_CID>
4987

> <Description>
Cyclin dependent kinase (CDK) inhibitor

$$$$
