
  -ISIS-  08130814242D

 20 21  0  0  0  0  0  0  0  0999 V2000
    1.2042   -0.6375    0.0000 C   0  0  0  0  0  0  0  0  0  0  0  0
   -0.4333   -0.6792    0.0000 N   0  0  0  0  0  0  0  0  0  0  0  0
    2.8292   -0.6375    0.0000 C   0  0  0  0  0  0  0  0  0  0  0  0
    2.0042   -1.1167    0.0000 C   0  0  0  0  0  0  0  0  0  0  0  0
    0.3875   -1.1375    0.0000 C   0  0  0  0  0  0  0  0  0  0  0  0
   -1.2333   -1.1542    0.0000 C   0  0  0  0  0  0  0  0  0  0  0  0
    2.8500    0.3000    0.0000 C   0  0  0  0  0  0  0  0  0  0  0  0
    1.2042    0.3208    0.0000 C   0  0  0  0  0  0  0  0  0  0  0  0
    2.0042    0.7833    0.0000 C   0  0  0  0  0  0  0  0  0  0  0  0
   -2.0500   -0.7000    0.0000 C   0  0  0  0  0  0  0  0  0  0  0  0
   -1.2125   -2.1000    0.0000 C   0  0  0  0  0  0  0  0  0  0  0  0
   -2.8500   -1.1792    0.0000 C   0  0  0  0  0  0  0  0  0  0  0  0
    3.6667   -1.1167    0.0000 I   0  0  0  0  0  0  0  0  0  0  0  0
    2.0042   -2.0542    0.0000 O   0  0  0  0  0  0  0  0  0  0  0  0
   -2.0125   -2.5792    0.0000 C   0  0  0  0  0  0  0  0  0  0  0  0
    2.0042    1.7208    0.0000 I   0  0  0  0  0  0  0  0  0  0  0  0
   -2.8333   -2.1167    0.0000 C   0  0  0  0  0  0  0  0  0  0  0  0
   -2.0708    0.2625    0.0000 O   0  0  0  0  0  0  0  0  0  0  0  0
   -1.9958   -3.5167    0.0000 C   0  0  0  0  0  0  0  0  0  0  0  0
   -1.1708   -3.9792    0.0000 C   0  0  0  0  0  0  0  0  0  0  0  0
  2  5  2  0  0  0  0
  3  4  1  0  0  0  0
  4  1  2  0  0  0  0
  5  1  1  0  0  0  0
  6  2  1  0  0  0  0
  7  9  1  0  0  0  0
  8  1  1  0  0  0  0
  9  8  2  0  0  0  0
 10  6  2  0  0  0  0
 11  6  1  0  0  0  0
 12 10  1  0  0  0  0
 13  3  1  0  0  0  0
 14  4  1  0  0  0  0
 15 11  2  0  0  0  0
 16  9  1  0  0  0  0
 17 15  1  0  0  0  0
 18 10  1  0  0  0  0
 19 15  1  0  0  0  0
 20 19  1  0  0  0  0
  7  3  2  0  0  0  0
 12 17  2  0  0  0  0
M  END
> <#>
572

> <PLATE>
LAT008

> <ROW>
D

> <COL>
3

> <COORD>
D03

> <LATID>
LAT008D03

> <Supplier>
Chembridge

> <Suplier_CAT#>
5477031

> <Name>
Novel

> <Sec_Name>
139_F09

> <Concentration_(mM)>
2.5

> <IC50_(µM)>
27

> <Yeast_Active?>
-

> <Pubchem_CID>
NULL

$$$$
