
  -ISIS-  08130814242D

 27 29  0  0  0  0  0  0  0  0999 V2000
   -0.8958    0.5625    0.0000 N   0  0  3  0  0  0  0  0  0  0  0  0
   -0.6833    1.5208    0.0000 C   0  0  0  0  0  0  0  0  0  0  0  0
   -0.0208    0.0625    0.0000 C   0  0  0  0  0  0  0  0  0  0  0  0
   -1.7500    0.0625    0.0000 C   0  0  0  0  0  0  0  0  0  0  0  0
   -2.6000    0.5625    0.0000 C   0  0  0  0  0  0  0  0  0  0  0  0
    0.7167    0.7125    0.0000 C   0  0  3  0  0  0  0  0  0  0  0  0
    0.3167    1.6208    0.0000 C   0  0  0  0  0  0  0  0  0  0  0  0
   -2.6000    1.5500    0.0000 C   0  0  3  0  0  0  0  0  0  0  0  0
    3.3167    1.1000    0.0000 C   0  0  0  0  0  0  0  0  0  0  0  0
    1.7042    0.5208    0.0000 S   0  0  0  0  0  0  0  0  0  0  0  0
    2.3500    1.2708    0.0000 C   0  0  0  0  0  0  0  0  0  0  0  0
    3.6375    0.1708    0.0000 C   0  0  0  0  0  0  0  0  0  0  0  0
   -1.3333    2.2833    0.0000 O   0  0  0  0  0  0  0  0  0  0  0  0
    0.0875   -0.9542    0.0000 O   0  0  0  0  0  0  0  0  0  0  0  0
    4.6167   -0.0292    0.0000 O   0  0  0  0  0  0  0  0  0  0  0  0
   -3.4333    1.9708    0.0000 F   0  0  0  0  0  0  0  0  0  0  0  0
   -2.6625    2.5458    0.0000 F   0  0  0  0  0  0  0  0  0  0  0  0
   -1.6958    2.1000    0.0000 F   0  0  0  0  0  0  0  0  0  0  0  0
    3.0042   -0.6167    0.0000 O   0  0  0  0  0  0  0  0  0  0  0  0
   -3.4625    0.0625    0.0000 C   0  0  0  0  0  0  0  0  0  0  0  0
   -1.7500   -0.9542    0.0000 C   0  0  0  0  0  0  0  0  0  0  0  0
    3.9667    1.8500    0.0000 C   0  0  0  0  0  0  0  0  0  0  0  0
    2.0292    2.2083    0.0000 C   0  0  0  0  0  0  0  0  0  0  0  0
   -3.4958   -0.9292    0.0000 C   0  0  0  0  0  0  0  0  0  0  0  0
   -2.6000   -1.4375    0.0000 C   0  0  0  0  0  0  0  0  0  0  0  0
    3.6500    2.7958    0.0000 C   0  0  0  0  0  0  0  0  0  0  0  0
    2.6667    2.9625    0.0000 C   0  0  0  0  0  0  0  0  0  0  0  0
  2  1  1  0  0  0  0
  3  1  1  0  0  0  0
  4  1  1  0  0  0  0
  5  4  1  0  0  0  0
  6  3  1  0  0  0  0
  7  2  1  0  0  0  0
  8  5  1  0  0  0  0
  9 11  1  0  0  0  0
 10  6  1  0  0  0  0
 11 10  1  0  0  0  0
 12  9  1  0  0  0  0
 13  2  2  0  0  0  0
 14  3  2  0  0  0  0
 15 12  2  0  0  0  0
 16  8  1  0  0  0  0
 17  8  1  0  0  0  0
 18  8  1  0  0  0  0
 19 12  1  0  0  0  0
 20  5  2  0  0  0  0
 21  4  2  0  0  0  0
 22  9  2  0  0  0  0
 23 11  2  0  0  0  0
 24 25  2  0  0  0  0
 25 21  1  0  0  0  0
 26 27  2  0  0  0  0
 27 23  1  0  0  0  0
  7  6  1  0  0  0  0
 20 24  1  0  0  0  0
 22 26  1  0  0  0  0
M  END
> <#>
2034

> <PLATE>
LAT026

> <ROW>
B

> <COL>
6

> <COORD>
B06

> <LATID>
LAT026B06

> <Supplier>
Chembridge

> <Suplier_CAT#>
5767542

> <Sec_Name>
243_D02

> <Concentration_(mM)>
2.5

> <IC50_(µM)>
inactive

> <Yeast_Active?>
-

> <Pubchem_CID>
1163961

$$$$
