
  -ISIS-  08130814242D

 23 25  0  0  0  0  0  0  0  0999 V2000
   -1.7833    0.6208    0.0000 C   0  0  0  0  0  0  0  0  0  0  0  0
   -2.8625    0.2500    0.0000 N   0  0  3  0  0  0  0  0  0  0  0  0
   -2.1958    0.0458    0.0000 C   0  0  0  0  0  0  0  0  0  0  0  0
   -2.8708    0.9625    0.0000 N   0  0  0  0  0  0  0  0  0  0  0  0
   -2.2000    1.1833    0.0000 C   0  0  0  0  0  0  0  0  0  0  0  0
   -1.0708    0.6333    0.0000 C   0  0  0  0  0  0  0  0  0  0  0  0
   -3.4333   -0.1667    0.0000 C   0  0  0  0  0  0  0  0  0  0  0  0
   -1.9708   -0.6167    0.0000 O   0  0  0  0  0  0  0  0  0  0  0  0
   -2.0000    1.8625    0.0000 O   0  0  0  0  0  0  0  0  0  0  0  0
    0.0042   -1.1792    0.0000 C   0  0  0  0  0  0  0  0  0  0  0  0
   -0.7125    0.0333    0.0000 C   0  0  0  0  0  0  0  0  0  0  0  0
   -0.6833   -1.1875    0.0000 C   0  0  0  0  0  0  0  0  0  0  0  0
    0.3542   -0.5542    0.0000 C   0  0  0  0  0  0  0  0  0  0  0  0
    0.3792   -1.7792    0.0000 C   0  0  3  0  0  0  0  0  0  0  0  0
    0.0000    0.0458    0.0000 C   0  0  0  0  0  0  0  0  0  0  0  0
   -1.0500   -0.5792    0.0000 C   0  0  0  0  0  0  0  0  0  0  0  0
   -4.0833    0.1125    0.0000 C   0  0  0  0  0  0  0  0  0  0  0  0
   -3.3500   -0.8667    0.0000 C   0  0  0  0  0  0  0  0  0  0  0  0
    0.0375   -2.4000    0.0000 C   0  0  0  0  0  0  0  0  0  0  0  0
    1.0875   -1.7667    0.0000 C   0  0  0  0  0  0  0  0  0  0  0  0
   -3.9208   -1.2875    0.0000 C   0  0  0  0  0  0  0  0  0  0  0  0
   -4.6583   -0.3042    0.0000 C   0  0  0  0  0  0  0  0  0  0  0  0
   -4.5708   -1.0042    0.0000 C   0  0  0  0  0  0  0  0  0  0  0  0
  2  3  1  0  0  0  0
  3  1  1  0  0  0  0
  4  5  1  0  0  0  0
  5  1  1  0  0  0  0
  6  1  2  0  0  0  0
  7  2  1  0  0  0  0
  8  3  2  0  0  0  0
  9  5  2  0  0  0  0
 10 12  1  0  0  0  0
 11  6  1  0  0  0  0
 12 16  2  0  0  0  0
 13 15  1  0  0  0  0
 14 10  1  0  0  0  0
 15 11  2  0  0  0  0
 16 11  1  0  0  0  0
 17  7  1  0  0  0  0
 18  7  2  0  0  0  0
 19 14  1  0  0  0  0
 20 14  1  0  0  0  0
 21 18  1  0  0  0  0
 22 17  2  0  0  0  0
 23 21  2  0  0  0  0
  2  4  1  0  0  0  0
 13 10  2  0  0  0  0
 23 22  1  0  0  0  0
M  END
> <#>
1998

> <PLATE>
LAT025

> <ROW>
F

> <COL>
11

> <COORD>
F11

> <LATID>
LAT025F11

> <Supplier>
Chembridge

> <Suplier_CAT#>
5559978

> <Sec_Name>
172_A02

> <Concentration_(mM)>
2.5

> <IC50_(µM)>
inactive

> <Yeast_Active?>
-

> <Pubchem_CID>
871979

$$$$
