
  -ISIS-  08130814242D

 86 96  0  0  0  0  0  0  0  0999 V2000
    9.6042   -2.1917    0.0000 C   0  0  1  0  0  0  0  0  0  0  0  0
    2.7292   -7.9042    0.0000 C   0  0  2  0  0  0  0  0  0  0  0  0
    1.9792   -8.1792    0.0000 C   0  0  1  0  0  0  0  0  0  0  0  0
    9.6042   -2.9292    0.0000 C   0  0  3  0  0  0  0  0  0  0  0  0
    3.9917  -10.4042    0.0000 C   0  0  1  0  0  0  0  0  0  0  0  0
   11.2542   -1.3042    0.0000 C   0  0  2  0  0  0  0  0  0  0  0  0
   10.7625   -2.4042    0.0000 C   0  0  3  0  0  0  0  0  0  0  0  0
   10.3125   -1.8500    0.0000 C   0  0  3  0  0  0  0  0  0  0  0  0
    2.8667   -7.1167    0.0000 C   0  0  1  0  0  0  0  0  0  0  0  0
    7.6917   -3.3000    0.0000 C   0  0  1  0  0  0  0  0  0  0  0  0
    3.3125   -9.2042    0.0000 C   0  0  2  0  0  0  0  0  0  0  0  0
    4.8750  -11.6042    0.0000 C   0  0  2  0  0  0  0  0  0  0  0  0
   11.4042   -2.0417    0.0000 O   0  0  0  0  0  0  0  0  0  0  0  0
    5.2292   -5.0667    0.0000 C   0  0  1  0  0  0  0  0  0  0  0  0
    4.0000   -9.6042    0.0000 C   0  0  2  0  0  0  0  0  0  0  0  0
    4.1542   -6.2500    0.0000 C   0  0  1  0  0  0  0  0  0  0  0  0
    8.9667   -3.3000    0.0000 C   0  0  3  0  0  0  0  0  0  0  0  0
    5.6375  -11.8167    0.0000 C   0  0  1  0  0  0  0  0  0  0  0  0
   10.4042   -3.1375    0.0000 C   0  0  3  0  0  0  0  0  0  0  0  0
    5.4792   -5.8292    0.0000 C   0  0  1  0  0  0  0  0  0  0  0  0
    4.9417   -6.4167    0.0000 C   0  0  1  0  0  0  0  0  0  0  0  0
    8.3292   -2.9292    0.0000 C   0  0  3  0  0  0  0  0  0  0  0  0
    0.5417   -9.9417    0.0000 C   0  0  1  0  0  0  0  0  0  0  0  0
    5.8292  -12.5917    0.0000 C   0  0  2  0  0  0  0  0  0  0  0  0
    0.9375   -9.2417    0.0000 C   0  0  2  0  0  0  0  0  0  0  0  0
    3.3042   -8.4042    0.0000 O   0  0  0  0  0  0  0  0  0  0  0  0
    4.6875  -10.8167    0.0000 O   0  0  0  0  0  0  0  0  0  0  0  0
    2.2542   -6.6042    0.0000 O   0  0  0  0  0  0  0  0  0  0  0  0
    4.3000  -12.1625    0.0000 O   0  0  0  0  0  0  0  0  0  0  0  0
    2.6167   -9.6042    0.0000 O   0  0  0  0  0  0  0  0  0  0  0  0
    4.4500   -4.9000    0.0000 O   0  0  0  0  0  0  0  0  0  0  0  0
    3.6167   -6.8417    0.0000 O   0  0  0  0  0  0  0  0  0  0  0  0
    1.8417   -8.9750    0.0000 O   0  0  0  0  0  0  0  0  0  0  0  0
    1.3667   -7.6667    0.0000 C   0  0  1  0  0  0  0  0  0  0  0  0
    3.3042  -10.8042    0.0000 C   0  0  2  0  0  0  0  0  0  0  0  0
    5.2542  -13.1500    0.0000 C   0  0  1  0  0  0  0  0  0  0  0  0
    3.9125   -5.4917    0.0000 C   0  0  2  0  0  0  0  0  0  0  0  0
   -0.2583   -9.9542    0.0000 C   0  0  2  0  0  0  0  0  0  0  0  0
   10.5292   -1.1500    0.0000 C   0  0  2  0  0  0  0  0  0  0  0  0
    1.5042   -6.8792    0.0000 C   0  0  1  0  0  0  0  0  0  0  0  0
    2.6125  -10.4000    0.0000 C   0  0  1  0  0  0  0  0  0  0  0  0
    4.4917  -12.9292    0.0000 C   0  0  1  0  0  0  0  0  0  0  0  0
    7.0542   -2.9292    0.0000 C   0  0  0  0  0  0  0  0  0  0  0  0
    7.6917   -4.0292    0.0000 C   0  0  2  0  0  0  0  0  0  0  0  0
   11.7667   -0.5167    0.0000 O   0  0  0  0  0  0  0  0  0  0  0  0
    5.7625   -4.4667    0.0000 O   0  0  0  0  0  0  0  0  0  0  0  0
    0.5292   -8.5625    0.0000 O   0  0  0  0  0  0  0  0  0  0  0  0
    8.9667   -1.8292    0.0000 C   0  0  0  0  0  0  0  0  0  0  0  0
    6.4292   -4.0292    0.0000 C   0  0  1  0  0  0  0  0  0  0  0  0
    8.3292   -2.1917    0.0000 C   0  0  0  0  0  0  0  0  0  0  0  0
    8.9667   -4.0292    0.0000 C   0  0  0  0  0  0  0  0  0  0  0  0
    7.0542   -4.3917    0.0000 C   0  0  0  0  0  0  0  0  0  0  0  0
    6.4292   -3.3000    0.0000 C   0  0  2  0  0  0  0  0  0  0  0  0
   -0.6583   -9.2667    0.0000 C   0  0  1  0  0  0  0  0  0  0  0  0
   12.1042   -1.0667    0.0000 C   0  0  0  0  0  0  0  0  0  0  0  0
   -0.2625   -8.5667    0.0000 C   0  0  0  0  0  0  0  0  0  0  0  0
    8.3292   -4.3917    0.0000 C   0  0  0  0  0  0  0  0  0  0  0  0
    4.5375   -9.1750    0.0000 O   0  0  0  0  0  0  0  0  0  0  0  0
    6.2667   -5.9875    0.0000 O   0  0  0  0  0  0  0  0  0  0  0  0
    6.2167  -11.3042    0.0000 O   0  0  0  0  0  0  0  0  0  0  0  0
    0.9542  -10.6417    0.0000 O   0  0  0  0  0  0  0  0  0  0  0  0
   10.8125   -3.6875    0.0000 O   0  0  0  0  0  0  0  0  0  0  0  0
    5.1792   -7.1875    0.0000 O   0  0  0  0  0  0  0  0  0  0  0  0
    6.6000  -12.8167    0.0000 O   0  0  0  0  0  0  0  0  0  0  0  0
    3.3125  -11.6167    0.0000 O   0  0  0  0  0  0  0  0  0  0  0  0
    0.6042   -7.9417    0.0000 O   0  0  0  0  0  0  0  0  0  0  0  0
    5.4417  -13.9292    0.0000 O   0  0  0  0  0  0  0  0  0  0  0  0
   -0.6583  -10.6542    0.0000 O   0  0  0  0  0  0  0  0  0  0  0  0
    9.6417   -1.5250    0.0000 C   0  0  0  0  0  0  0  0  0  0  0  0
   12.5000   -0.7375    0.0000 C   0  0  0  0  0  0  0  0  0  0  0  0
    7.7042   -2.5250    0.0000 C   0  0  0  0  0  0  0  0  0  0  0  0
   -1.4625   -9.2750    0.0000 O   0  0  0  0  0  0  0  0  0  0  0  0
    5.7917   -2.9375    0.0000 O   0  0  0  0  0  0  0  0  0  0  0  0
   12.8625   -1.4292    0.0000 C   0  0  0  0  0  0  0  0  0  0  0  0
    3.1167   -5.3167    0.0000 C   0  0  0  0  0  0  0  0  0  0  0  0
    3.9250  -13.4792    0.0000 C   0  0  0  0  0  0  0  0  0  0  0  0
    0.8875   -6.3667    0.0000 C   0  0  0  0  0  0  0  0  0  0  0  0
    1.9125  -10.7917    0.0000 C   0  0  0  0  0  0  0  0  0  0  0  0
   13.1917   -0.3750    0.0000 C   0  0  1  0  0  0  0  0  0  0  0  0
   10.0125   -0.6292    0.0000 C   0  0  0  0  0  0  0  0  0  0  0  0
    1.9000  -11.5917    0.0000 O   0  0  0  0  0  0  0  0  0  0  0  0
    0.1375   -6.6417    0.0000 O   0  0  0  0  0  0  0  0  0  0  0  0
    3.1625  -13.2667    0.0000 O   0  0  0  0  0  0  0  0  0  0  0  0
    2.8750   -4.5542    0.0000 O   0  0  0  0  0  0  0  0  0  0  0  0
   13.7125   -0.8792    0.0000 C   0  0  0  0  0  0  0  0  0  0  0  0
    7.6917   -4.7542    0.0000 H   0  0  0  0  0  0  0  0  0  0  0  0
  2  9  1  0  0  0  0
  3  2  1  0  0  0  0
  4  1  1  0  0  0  0
  5 15  1  0  0  0  0
  6 39  1  0  0  0  0
  7  8  1  0  0  0  0
  8  1  1  0  0  0  0
  9 32  1  1  0  0  0
 10 22  1  0  0  0  0
 11 26  1  1  0  0  0
 12 27  1  1  0  0  0
 13  7  1  0  0  0  0
 14 46  1  1  0  0  0
 15 11  1  0  0  0  0
 16 37  1  0  0  0  0
 17  4  1  0  0  0  0
 18 12  1  0  0  0  0
 19  4  1  0  0  0  0
 20 14  1  0  0  0  0
 21 20  1  0  0  0  0
 22 50  1  0  0  0  0
 23 25  1  0  0  0  0
 24 18  1  0  0  0  0
 25 33  1  1  0  0  0
  2 26  1  6  0  0  0
  5 27  1  1  0  0  0
 28  9  1  0  0  0  0
 29 12  1  0  0  0  0
 30 11  1  0  0  0  0
 31 14  1  0  0  0  0
 16 32  1  1  0  0  0
  3 33  1  1  0  0  0
 34 40  1  0  0  0  0
 35 41  1  0  0  0  0
 36 42  1  0  0  0  0
 37 31  1  0  0  0  0
 38 23  1  0  0  0  0
 39  8  1  0  0  0  0
 40 28  1  0  0  0  0
 41 30  1  0  0  0  0
 42 29  1  0  0  0  0
 43 10  1  0  0  0  0
 44 10  1  0  0  0  0
  6 45  1  6  0  0  0
 49 46  1  6  0  0  0
 47 25  1  0  0  0  0
 48  1  1  0  0  0  0
 49 52  1  0  0  0  0
 50 48  1  0  0  0  0
 51 17  1  0  0  0  0
 52 44  1  0  0  0  0
 53 43  1  0  0  0  0
 54 56  1  0  0  0  0
 55  6  1  0  0  0  0
 56 47  1  0  0  0  0
 57 51  1  0  0  0  0
 15 58  1  6  0  0  0
 20 59  1  6  0  0  0
 18 60  1  6  0  0  0
 23 61  1  6  0  0  0
 62 19  1  0  0  0  0
 21 63  1  1  0  0  0
 24 64  1  1  0  0  0
 35 65  1  1  0  0  0
 34 66  1  6  0  0  0
 36 67  1  6  0  0  0
 38 68  1  1  0  0  0
  1 69  1  1  0  0  0
 70 45  1  0  0  0  0
 10 71  1  1  0  0  0
 54 72  1  6  0  0  0
 53 73  1  6  0  0  0
 74 55  1  0  0  0  0
 37 75  1  1  0  0  0
 42 76  1  1  0  0  0
 40 77  1  1  0  0  0
 41 78  1  1  0  0  0
 79 74  1  0  0  0  0
 39 80  1  6  0  0  0
 81 78  1  0  0  0  0
 82 77  1  0  0  0  0
 83 76  1  0  0  0  0
 84 75  1  0  0  0  0
 79 85  1  6  0  0  0
 44 86  1  6  0  0  0
  7 19  1  0  0  0  0
 22 17  1  0  0  0  0
  6 13  1  0  0  0  0
 57 44  1  0  0  0  0
 49 53  1  0  0  0  0
 79 70  1  0  0  0  0
 21 16  1  0  0  0  0
  3 34  1  0  0  0  0
  5 35  1  0  0  0  0
 38 54  1  0  0  0  0
 24 36  1  0  0  0  0
M  END
> <#>
6

> <PLATE>
LAT001

> <ROW>
F

> <COL>
2

> <COORD>
F02

> <LATID>
LAT001F02

> <Supplier>
Microsource

> <Suplier_CAT#>
00100325

> <Name>
Digitonin

> <Concentration_(mM)>
2.5

> <IC50_(µM)>
100

> <Yeast_Active?>
-

> <Pubchem_CID>
25444

> <Source>
Natural Product; ex the seeds of Digitalis purpurea, Scrophulariaceae

$$$$
