
  -ISIS-  08130814242D

 24 27  0  0  0  0  0  0  0  0999 V2000
    1.6875    0.0208    0.0000 C   0  0  0  0  0  0  0  0  0  0  0  0
    2.1500   -0.7667    0.0000 C   0  0  0  0  0  0  0  0  0  0  0  0
    2.1500    0.8125    0.0000 C   0  0  0  0  0  0  0  0  0  0  0  0
    3.0792   -0.7667    0.0000 C   0  0  0  0  0  0  0  0  0  0  0  0
    3.0792    0.8125    0.0000 C   0  0  0  0  0  0  0  0  0  0  0  0
    0.7667    0.0208    0.0000 N   0  0  0  0  0  0  0  0  0  0  0  0
   -0.6333    0.8208    0.0000 C   0  0  0  0  0  0  0  0  0  0  0  0
    0.3000    0.8208    0.0000 O   0  0  0  0  0  0  0  0  0  0  0  0
   -1.0958    0.0208    0.0000 N   0  0  0  0  0  0  0  0  0  0  0  0
   -1.1000    1.6208    0.0000 O   0  0  0  0  0  0  0  0  0  0  0  0
   -2.0208    0.0208    0.0000 C   0  0  0  0  0  0  0  0  0  0  0  0
    1.7000    1.6208    0.0000 C   0  0  0  0  0  0  0  0  0  0  0  0
    1.6875   -1.5792    0.0000 C   0  0  0  0  0  0  0  0  0  0  0  0
    3.5375   -1.5667    0.0000 C   0  0  0  0  0  0  0  0  0  0  0  0
    3.5500    1.6208    0.0000 C   0  0  0  0  0  0  0  0  0  0  0  0
   -2.4958    0.8333    0.0000 C   0  0  0  0  0  0  0  0  0  0  0  0
   -2.4958   -0.7875    0.0000 C   0  0  0  0  0  0  0  0  0  0  0  0
    2.1500   -2.3792    0.0000 C   0  0  0  0  0  0  0  0  0  0  0  0
    2.1542    2.4208    0.0000 C   0  0  0  0  0  0  0  0  0  0  0  0
    3.0792   -2.3792    0.0000 C   0  0  0  0  0  0  0  0  0  0  0  0
    3.0875    2.4208    0.0000 C   0  0  0  0  0  0  0  0  0  0  0  0
   -3.4333    0.8333    0.0000 C   0  0  0  0  0  0  0  0  0  0  0  0
   -3.4333   -0.7875    0.0000 C   0  0  0  0  0  0  0  0  0  0  0  0
   -3.9000    0.0208    0.0000 C   0  0  0  0  0  0  0  0  0  0  0  0
  2  1  1  0  0  0  0
  3  1  1  0  0  0  0
  4  2  2  0  0  0  0
  5  3  2  0  0  0  0
  6  1  2  0  0  0  0
  7  8  1  0  0  0  0
  8  6  1  0  0  0  0
  9  7  1  0  0  0  0
 10  7  2  0  0  0  0
 11  9  1  0  0  0  0
 12  3  1  0  0  0  0
 13  2  1  0  0  0  0
 14  4  1  0  0  0  0
 15  5  1  0  0  0  0
 16 11  2  0  0  0  0
 17 11  1  0  0  0  0
 18 13  2  0  0  0  0
 19 12  2  0  0  0  0
 20 18  1  0  0  0  0
 21 19  1  0  0  0  0
 22 16  1  0  0  0  0
 23 17  2  0  0  0  0
 24 23  1  0  0  0  0
  4  5  1  0  0  0  0
 21 15  2  0  0  0  0
 20 14  2  0  0  0  0
 24 22  2  0  0  0  0
M  END
> <#>
719

> <PLATE>
LAT009

> <ROW>
G

> <COL>
11

> <COORD>
G11

> <LATID>
LAT009G11

> <Supplier>
Chembridge

> <Suplier_CAT#>
5563666

> <Name>
Novel

> <Sec_Name>
170_A09

> <Concentration_(mM)>
2.5

> <IC50_(µM)>
95

> <Yeast_Active?>
+

> <Pubchem_CID>
323717

$$$$
