
  -ISIS-  08130814242D

 25 28  0  0  0  0  0  0  0  0999 V2000
    5.6417    1.5583    0.0000 N   0  0  3  0  0  0  0  0  0  0  0  0
    5.3375    2.2458    0.0000 C   0  0  0  0  0  0  0  0  0  0  0  0
    4.5917    2.1625    0.0000 N   0  0  0  0  0  0  0  0  0  0  0  0
    5.0875    1.0583    0.0000 C   0  0  0  0  0  0  0  0  0  0  0  0
    4.4375    1.4333    0.0000 C   0  0  0  0  0  0  0  0  0  0  0  0
    6.3792    1.4000    0.0000 C   0  0  0  0  0  0  0  0  0  0  0  0
    3.7875    1.0583    0.0000 C   0  0  0  0  0  0  0  0  0  0  0  0
    5.0875    0.3083    0.0000 C   0  0  0  0  0  0  0  0  0  0  0  0
    1.1875    0.3083    0.0000 N   0  0  0  0  0  0  0  0  0  0  0  0
    3.1375   -0.0667    0.0000 N   0  0  0  0  0  0  0  0  0  0  0  0
    3.7875    0.3083    0.0000 C   0  0  0  0  0  0  0  0  0  0  0  0
    6.6042    0.6875    0.0000 C   0  0  0  0  0  0  0  0  0  0  0  0
    6.8792    1.9583    0.0000 C   0  0  0  0  0  0  0  0  0  0  0  0
    1.8375   -0.0667    0.0000 C   0  0  0  0  0  0  0  0  0  0  0  0
    4.4375   -0.0667    0.0000 C   0  0  0  0  0  0  0  0  0  0  0  0
    2.4875    0.3083    0.0000 C   0  0  0  0  0  0  0  0  0  0  0  0
    7.8417    1.0875    0.0000 C   0  0  0  0  0  0  0  0  0  0  0  0
    7.6125    1.8000    0.0000 C   0  0  0  0  0  0  0  0  0  0  0  0
    7.3417    0.5333    0.0000 C   0  0  0  0  0  0  0  0  0  0  0  0
    8.5792    0.9333    0.0000 O   0  0  0  0  0  0  0  0  0  0  0  0
    0.5417   -0.0667    0.0000 C   0  0  0  0  0  0  0  0  0  0  0  0
    1.8375   -0.8167    0.0000 C   0  0  0  0  0  0  0  0  0  0  0  0
    8.8042    0.2208    0.0000 C   0  0  0  0  0  0  0  0  0  0  0  0
    0.5417   -0.8167    0.0000 C   0  0  0  0  0  0  0  0  0  0  0  0
    1.1875   -1.1917    0.0000 C   0  0  0  0  0  0  0  0  0  0  0  0
  2  1  1  0  0  0  0
  3  2  2  0  0  0  0
  4  1  1  0  0  0  0
  5  4  2  0  0  0  0
  6  1  1  0  0  0  0
  7  5  1  0  0  0  0
  8  4  1  0  0  0  0
  9 14  1  0  0  0  0
 10 11  1  0  0  0  0
 11 15  1  0  0  0  0
 12  6  2  0  0  0  0
 13  6  1  0  0  0  0
 14 16  1  0  0  0  0
 15  8  2  0  0  0  0
 16 10  1  0  0  0  0
 17 18  1  0  0  0  0
 18 13  2  0  0  0  0
 19 12  1  0  0  0  0
 20 17  1  0  0  0  0
 21  9  2  0  0  0  0
 22 14  2  0  0  0  0
 23 20  1  0  0  0  0
 24 25  2  0  0  0  0
 25 22  1  0  0  0  0
  5  3  1  0  0  0  0
 17 19  2  0  0  0  0
 11  7  2  0  0  0  0
 24 21  1  0  0  0  0
M  END
> <#>
1487

> <PLATE>
LAT019

> <ROW>
G

> <COL>
7

> <COORD>
G07

> <LATID>
LAT019G07

> <Supplier>
Chembridge

> <Suplier_CAT#>
7964703

> <Name>
Novel

> <Concentration_(mM)>
2.5

> <IC50_(µM)>
100

> <Yeast_Active?>
-

> <Pubchem_CID>
2031833

$$$$
