
  -ISIS-  08130814242D

 24 26  0  0  0  0  0  0  0  0999 V2000
   -1.9061   -2.4301    0.0000 C   0  0  0  0  0  0  0  0  0  0  0  0
   -1.8941   -1.5378    0.0000 N   0  0  3  0  0  0  0  0  0  0  0  0
   -2.6609   -1.0814    0.0000 C   0  0  0  0  0  0  0  0  0  0  0  0
   -2.6490   -0.1892    0.0000 C   0  0  0  0  0  0  0  0  0  0  0  0
   -1.8703    0.2466    0.0000 C   0  0  0  0  0  0  0  0  0  0  0  0
   -1.8584    1.1389    0.0000 O   0  0  0  0  0  0  0  0  0  0  0  0
   -1.1036   -0.2098    0.0000 C   0  0  0  0  0  0  0  0  0  0  0  0
   -1.1155   -1.1020    0.0000 C   0  0  0  0  0  0  0  0  0  0  0  0
   -0.3249    0.2260    0.0000 C   0  0  0  0  0  0  0  0  0  0  0  0
   -0.3130    1.1182    0.0000 C   0  0  0  0  0  0  0  0  0  0  0  0
    0.4657    1.5541    0.0000 C   0  0  0  0  0  0  0  0  0  0  0  0
    1.2324    1.0976    0.0000 C   0  0  0  0  0  0  0  0  0  0  0  0
    1.2205    0.2054    0.0000 C   0  0  0  0  0  0  0  0  0  0  0  0
    0.4418   -0.2304    0.0000 C   0  0  0  0  0  0  0  0  0  0  0  0
    0.4776    2.4463    0.0000 C   0  0  3  0  0  0  0  0  0  0  0  0
   -0.4147    2.4582    0.0000 F   0  0  0  0  0  0  0  0  0  0  0  0
    0.4895    3.3385    0.0000 F   0  0  0  0  0  0  0  0  0  0  0  0
    1.3698    2.4344    0.0000 F   0  0  0  0  0  0  0  0  0  0  0  0
   -3.4157    0.2673    0.0000 C   0  0  0  0  0  0  0  0  0  0  0  0
   -4.1944   -0.1685    0.0000 C   0  0  0  0  0  0  0  0  0  0  0  0
   -4.9611    0.2879    0.0000 C   0  0  0  0  0  0  0  0  0  0  0  0
   -4.9492    1.1802    0.0000 C   0  0  0  0  0  0  0  0  0  0  0  0
   -4.1706    1.6160    0.0000 C   0  0  0  0  0  0  0  0  0  0  0  0
   -3.4038    1.1595    0.0000 C   0  0  0  0  0  0  0  0  0  0  0  0
  1  2  1  0  0  0  0
  2  3  1  0  0  0  0
  3  4  2  0  0  0  0
  4  5  1  0  0  0  0
  5  6  2  0  0  0  0
  5  7  1  0  0  0  0
  7  8  2  0  0  0  0
  2  8  1  0  0  0  0
  7  9  1  0  0  0  0
  9 10  2  0  0  0  0
 10 11  1  0  0  0  0
 11 12  2  0  0  0  0
 12 13  1  0  0  0  0
 13 14  2  0  0  0  0
  9 14  1  0  0  0  0
 11 15  1  0  0  0  0
 15 16  1  0  0  0  0
 15 17  1  0  0  0  0
 15 18  1  0  0  0  0
  4 19  1  0  0  0  0
 19 20  2  0  0  0  0
 20 21  1  0  0  0  0
 21 22  2  0  0  0  0
 22 23  1  0  0  0  0
 23 24  2  0  0  0  0
 19 24  1  0  0  0  0
M  END
> <#>
461

> <PLATE>
LAT006

> <ROW>
E

> <COL>
9

> <COORD>
E09

> <LATID>
LAT006E09

> <Supplier>
Riedel-de Haen

> <Suplier_CAT#>
4551

> <Name>
Fluridon

> <Concentration_(mM)>
2.5

> <IC50_(µM)>
10

> <Yeast_Active?>
-

> <Pubchem_CID>
43079

> <Description>
Herbicide

> <Comment>
Phytoene desaturase Inhibitor

$$$$
