
  -ISIS-  08130814242D

 36 40  0  0  0  0  0  0  0  0999 V2000
    2.1875   -6.5792    0.0000 C   0  0  2  0  0  0  0  0  0  0  0  0
    1.9167   -5.8125    0.0000 C   0  0  0  0  0  0  0  0  0  0  0  0
    2.9667   -6.3042    0.0000 O   0  0  0  0  0  0  0  0  0  0  0  0
    9.5667   -8.1792    0.0000 N   0  0  3  0  0  0  0  0  0  0  0  0
    2.2042   -7.4042    0.0000 O   0  0  0  0  0  0  0  0  0  0  0  0
    7.9625   -7.8292    0.0000 N   0  0  3  0  0  0  0  0  0  0  0  0
    2.3125   -5.0875    0.0000 C   0  0  0  0  0  0  0  0  0  0  0  0
    0.6875   -6.9667    0.0000 N   0  0  3  0  0  0  0  0  0  0  0  0
   -0.6333   -7.1292    0.0000 N   0  0  0  0  0  0  0  0  0  0  0  0
   10.3875   -8.3667    0.0000 C   0  0  0  0  0  0  0  0  0  0  0  0
    1.5000   -7.0375    0.0000 C   0  0  0  0  0  0  0  0  0  0  0  0
    1.0917   -5.8292    0.0000 C   0  0  0  0  0  0  0  0  0  0  0  0
    0.0875   -7.5292    0.0000 C   0  0  0  0  0  0  0  0  0  0  0  0
    1.8792   -4.3792    0.0000 C   0  0  0  0  0  0  0  0  0  0  0  0
    7.1542   -7.6667    0.0000 C   0  0  0  0  0  0  0  0  0  0  0  0
    3.4667   -6.9667    0.0000 C   0  0  3  0  0  0  0  0  0  0  0  0
   -0.4833   -6.3167    0.0000 C   0  0  0  0  0  0  0  0  0  0  0  0
    9.0250   -8.7917    0.0000 C   0  0  0  0  0  0  0  0  0  0  0  0
    9.3167   -7.3917    0.0000 C   0  0  0  0  0  0  0  0  0  0  0  0
    8.2125   -8.6167    0.0000 C   0  0  0  0  0  0  0  0  0  0  0  0
    8.5167   -7.2167    0.0000 C   0  0  0  0  0  0  0  0  0  0  0  0
    0.3292   -6.2167    0.0000 C   0  0  0  0  0  0  0  0  0  0  0  0
   10.6375   -9.1542    0.0000 O   0  0  0  0  0  0  0  0  0  0  0  0
    2.9917   -7.6375    0.0000 C   0  0  0  0  0  0  0  0  0  0  0  0
    6.7625   -8.3792    0.0000 C   0  0  0  0  0  0  0  0  0  0  0  0
    6.7500   -6.9542    0.0000 C   0  0  0  0  0  0  0  0  0  0  0  0
    1.0625   -4.4042    0.0000 C   0  0  0  0  0  0  0  0  0  0  0  0
    3.1250   -5.0667    0.0000 Cl  0  0  0  0  0  0  0  0  0  0  0  0
    4.6917   -7.6667    0.0000 O   0  0  0  0  0  0  0  0  0  0  0  0
    0.6667   -5.1417    0.0000 C   0  0  0  0  0  0  0  0  0  0  0  0
    5.5167   -7.6625    0.0000 C   0  0  0  0  0  0  0  0  0  0  0  0
    4.2875   -6.9667    0.0000 C   0  0  0  0  0  0  0  0  0  0  0  0
    5.9292   -8.3792    0.0000 C   0  0  0  0  0  0  0  0  0  0  0  0
    5.9250   -6.9542    0.0000 C   0  0  0  0  0  0  0  0  0  0  0  0
    0.6292   -3.6917    0.0000 Cl  0  0  0  0  0  0  0  0  0  0  0  0
   10.9417   -7.7542    0.0000 C   0  0  0  0  0  0  0  0  0  0  0  0
  2  1  1  0  0  0  0
  3  1  1  0  0  0  0
  4 19  1  0  0  0  0
  5  1  1  0  0  0  0
  6 15  1  0  0  0  0
  7  2  1  0  0  0  0
  8 11  1  0  0  0  0
  9 13  2  0  0  0  0
 10  4  1  0  0  0  0
  1 11  1  1  0  0  0
 12  2  2  0  0  0  0
 13  8  1  0  0  0  0
 14  7  2  0  0  0  0
 15 26  1  0  0  0  0
 16  3  1  0  0  0  0
 17 22  2  0  0  0  0
 18 20  1  0  0  0  0
 19 21  1  0  0  0  0
 20  6  1  0  0  0  0
 21  6  1  0  0  0  0
 22  8  1  0  0  0  0
 23 10  2  0  0  0  0
 24  5  1  0  0  0  0
 25 33  1  0  0  0  0
 26 34  2  0  0  0  0
 27 30  2  0  0  0  0
 28  7  1  0  0  0  0
 29 32  1  0  0  0  0
 30 12  1  0  0  0  0
 31 29  1  0  0  0  0
 32 16  1  0  0  0  0
 33 31  2  0  0  0  0
 34 31  1  0  0  0  0
 35 27  1  0  0  0  0
 36 10  1  0  0  0  0
 24 16  1  0  0  0  0
 17  9  1  0  0  0  0
 14 27  1  0  0  0  0
 25 15  2  0  0  0  0
 18  4  1  0  0  0  0
M  END
> <#>
65

> <PLATE>
LAT001

> <ROW>
A

> <COL>
10

> <COORD>
A10

> <LATID>
LAT001A10

> <Supplier>
Microsource

> <Suplier_CAT#>
01500362

> <Name>
Ketoconazole

> <Concentration_(mM)>
2.5

> <IC50_(µM)>
3.6

> <Yeast_Active?>
+

> <Pubchem_CID>
3823

> <Description>
Antifungal

> <LATCA_Notes>
Phenocopies Brassinazole treatment

$$$$
