
  -ISIS-  08130814242D

 22 24  0  0  0  0  0  0  0  0999 V2000
   -1.1458   -0.4667    0.0000 N   0  0  0  0  0  0  0  0  0  0  0  0
   -0.5458   -0.8042    0.0000 N   0  0  3  0  0  0  0  0  0  0  0  0
   -0.3208    0.2958    0.0000 C   0  0  0  0  0  0  0  0  0  0  0  0
   -1.0000    0.2125    0.0000 C   0  0  0  0  0  0  0  0  0  0  0  0
   -0.0458   -0.3500    0.0000 C   0  0  0  0  0  0  0  0  0  0  0  0
   -1.4833    0.7125    0.0000 C   0  0  0  0  0  0  0  0  0  0  0  0
    0.0375    0.9125    0.0000 C   0  0  0  0  0  0  0  0  0  0  0  0
   -0.3833   -1.4875    0.0000 C   0  0  0  0  0  0  0  0  0  0  0  0
    0.7375    0.9333    0.0000 N   0  0  0  0  0  0  0  0  0  0  0  0
   -2.1458    0.5333    0.0000 C   0  0  0  0  0  0  0  0  0  0  0  0
   -1.3000    1.3958    0.0000 C   0  0  0  0  0  0  0  0  0  0  0  0
    1.0792    1.5333    0.0000 O   0  0  0  0  0  0  0  0  0  0  0  0
   -1.7833    1.8708    0.0000 C   0  0  0  0  0  0  0  0  0  0  0  0
   -2.6208    1.0333    0.0000 C   0  0  0  0  0  0  0  0  0  0  0  0
   -2.4458    1.6708    0.0000 C   0  0  0  0  0  0  0  0  0  0  0  0
    0.2792   -1.7042    0.0000 C   0  0  0  0  0  0  0  0  0  0  0  0
   -0.9000   -1.9667    0.0000 C   0  0  0  0  0  0  0  0  0  0  0  0
   -2.9458    2.1500    0.0000 C   0  0  0  0  0  0  0  0  0  0  0  0
   -3.6000    1.9708    0.0000 C   0  0  0  0  0  0  0  0  0  0  0  0
   -0.7458   -2.6500    0.0000 C   0  0  0  0  0  0  0  0  0  0  0  0
    0.4375   -2.3875    0.0000 C   0  0  0  0  0  0  0  0  0  0  0  0
   -0.0833   -2.8500    0.0000 C   0  0  0  0  0  0  0  0  0  0  0  0
  2  1  1  0  0  0  0
  3  4  1  0  0  0  0
  4  1  2  0  0  0  0
  5  2  1  0  0  0  0
  6  4  1  0  0  0  0
  7  3  1  0  0  0  0
  8  2  1  0  0  0  0
  9  7  2  0  0  0  0
 10  6  2  0  0  0  0
 11  6  1  0  0  0  0
 12  9  1  0  0  0  0
 13 11  2  0  0  0  0
 14 10  1  0  0  0  0
 15 13  1  0  0  0  0
 16  8  2  0  0  0  0
 17  8  1  0  0  0  0
 18 15  1  0  0  0  0
 19 18  1  0  0  0  0
 20 17  2  0  0  0  0
 21 16  1  0  0  0  0
 22 20  1  0  0  0  0
  5  3  2  0  0  0  0
 14 15  2  0  0  0  0
 22 21  2  0  0  0  0
M  END
> <#>
1829

> <PLATE>
LAT023

> <ROW>
E

> <COL>
10

> <COORD>
E10

> <LATID>
LAT023E10

> <Supplier>
Chembridge

> <Suplier_CAT#>
5655706

> <Name>
Novel

> <Sec_Name>
202_D09

> <Concentration_(mM)>
2.5

> <IC50_(µM)>
48

> <Yeast_Active?>
-

> <Pubchem_CID>
740186

$$$$
