
  -ISIS-  08130814242D

 29 32  0  0  0  0  0  0  0  0999 V2000
   -0.3500    2.2208    0.0000 C   0  0  0  0  0  0  0  0  0  0  0  0
   -1.1708    1.7458    0.0000 N   0  0  0  0  0  0  0  0  0  0  0  0
   -0.3500    3.1708    0.0000 N   0  0  0  0  0  0  0  0  0  0  0  0
    0.4667    1.7458    0.0000 C   0  0  0  0  0  0  0  0  0  0  0  0
   -1.1708    3.6208    0.0000 C   0  0  0  0  0  0  0  0  0  0  0  0
   -1.9958    2.2208    0.0000 C   0  0  0  0  0  0  0  0  0  0  0  0
   -1.9958    3.1708    0.0000 C   0  0  0  0  0  0  0  0  0  0  0  0
    1.2667    0.3208    0.0000 N   0  0  0  0  0  0  0  0  0  0  0  0
    0.4667    0.8000    0.0000 N   0  0  0  0  0  0  0  0  0  0  0  0
    1.2875    2.2083    0.0000 O   0  0  0  0  0  0  0  0  0  0  0  0
   -2.8125    1.7458    0.0000 C   0  0  0  0  0  0  0  0  0  0  0  0
   -1.1708    4.5542    0.0000 C   0  0  0  0  0  0  0  0  0  0  0  0
    3.7042   -1.1167    0.0000 N   0  0  0  0  0  0  0  0  0  0  0  0
    1.2667   -0.6375    0.0000 C   0  0  0  0  0  0  0  0  0  0  0  0
    2.0875   -1.1000    0.0000 C   0  0  0  0  0  0  0  0  0  0  0  0
    2.9042   -0.6375    0.0000 C   0  0  0  0  0  0  0  0  0  0  0  0
    3.7042   -2.0542    0.0000 C   0  0  0  0  0  0  0  0  0  0  0  0
   -3.6125    2.2208    0.0000 C   0  0  0  0  0  0  0  0  0  0  0  0
   -2.8125    0.8000    0.0000 C   0  0  0  0  0  0  0  0  0  0  0  0
   -1.9958    5.0292    0.0000 C   0  0  0  0  0  0  0  0  0  0  0  0
   -0.3500    5.0292    0.0000 C   0  0  0  0  0  0  0  0  0  0  0  0
    2.0667   -2.0375    0.0000 C   0  0  0  0  0  0  0  0  0  0  0  0
    2.8875   -2.5167    0.0000 C   0  0  0  0  0  0  0  0  0  0  0  0
   -1.9958    5.9792    0.0000 C   0  0  0  0  0  0  0  0  0  0  0  0
   -0.3500    5.9792    0.0000 C   0  0  0  0  0  0  0  0  0  0  0  0
   -4.4333    1.7458    0.0000 C   0  0  0  0  0  0  0  0  0  0  0  0
   -3.6125    0.3208    0.0000 C   0  0  0  0  0  0  0  0  0  0  0  0
   -1.1708    6.4542    0.0000 C   0  0  0  0  0  0  0  0  0  0  0  0
   -4.4333    0.8000    0.0000 C   0  0  0  0  0  0  0  0  0  0  0  0
  2  1  1  0  0  0  0
  3  1  2  0  0  0  0
  4  1  1  0  0  0  0
  5  3  1  0  0  0  0
  6  2  2  0  0  0  0
  7  5  2  0  0  0  0
  8  9  1  0  0  0  0
  9  4  1  0  0  0  0
 10  4  2  0  0  0  0
 11  6  1  0  0  0  0
 12  5  1  0  0  0  0
 13 16  1  0  0  0  0
 14  8  2  0  0  0  0
 15 14  1  0  0  0  0
 16 15  2  0  0  0  0
 17 23  1  0  0  0  0
 18 11  2  0  0  0  0
 19 11  1  0  0  0  0
 20 12  1  0  0  0  0
 21 12  2  0  0  0  0
 22 15  1  0  0  0  0
 23 22  2  0  0  0  0
 24 20  2  0  0  0  0
 25 21  1  0  0  0  0
 26 18  1  0  0  0  0
 27 19  2  0  0  0  0
 28 25  2  0  0  0  0
 29 27  1  0  0  0  0
  7  6  1  0  0  0  0
 28 24  1  0  0  0  0
 29 26  2  0  0  0  0
 13 17  2  0  0  0  0
M  END
> <#>
1614

> <PLATE>
LAT021

> <ROW>
F

> <COL>
3

> <COORD>
F03

> <LATID>
LAT021F03

> <Supplier>
Chembridge

> <Suplier_CAT#>
5215629

> <Name>
Novel

> <Concentration_(mM)>
2.5

> <IC50_(µM)>
>100

> <Yeast_Active?>
-

> <Pubchem_CID>
1381235

$$$$
