
  -ISIS-  08130814242D

 19 21  0  0  0  0  0  0  0  0999 V2000
   -1.1833   -0.8167    0.0000 N   0  0  3  0  0  0  0  0  0  0  0  0
   -1.2000   -0.4375    0.0000 C   0  0  0  0  0  0  0  0  0  0  0  0
   -1.5625   -0.3375    0.0000 N   0  0  3  0  0  0  0  0  0  0  0  0
   -1.5625   -0.9542    0.0000 C   0  0  0  0  0  0  0  0  0  0  0  0
   -1.8000   -0.6542    0.0000 C   0  0  0  0  0  0  0  0  0  0  0  0
   -0.8458   -1.0167    0.0000 C   0  0  0  0  0  0  0  0  0  0  0  0
   -0.5000   -0.8375    0.0000 C   0  0  0  0  0  0  0  0  0  0  0  0
   -0.9000   -0.1542    0.0000 O   0  0  0  0  0  0  0  0  0  0  0  0
   -0.1625   -1.0375    0.0000 C   0  0  0  0  0  0  0  0  0  0  0  0
   -1.6833    0.0833    0.0000 C   0  0  0  0  0  0  0  0  0  0  0  0
   -0.1625   -1.4375    0.0000 Br  0  0  0  0  0  0  0  0  0  0  0  0
   -1.7000   -1.3375    0.0000 C   0  0  0  0  0  0  0  0  0  0  0  0
   -2.1833   -0.7000    0.0000 C   0  0  0  0  0  0  0  0  0  0  0  0
   -0.5000   -0.4375    0.0000 C   0  0  0  0  0  0  0  0  0  0  0  0
    0.1792   -0.8375    0.0000 C   0  0  0  0  0  0  0  0  0  0  0  0
   -2.3458   -1.0542    0.0000 C   0  0  0  0  0  0  0  0  0  0  0  0
   -2.1000   -1.4000    0.0000 C   0  0  0  0  0  0  0  0  0  0  0  0
   -0.1625   -0.2375    0.0000 C   0  0  0  0  0  0  0  0  0  0  0  0
    0.1792   -0.4375    0.0000 C   0  0  0  0  0  0  0  0  0  0  0  0
  2  1  1  0  0  0  0
  3  2  1  0  0  0  0
  4  1  1  0  0  0  0
  5  4  2  0  0  0  0
  6  1  1  0  0  0  0
  7  6  1  0  0  0  0
  8  2  2  0  0  0  0
  9  7  1  0  0  0  0
 10  3  1  0  0  0  0
 11  9  1  0  0  0  0
 12  4  1  0  0  0  0
 13  5  1  0  0  0  0
 14  7  2  0  0  0  0
 15  9  2  0  0  0  0
 16 17  1  0  0  0  0
 17 12  2  0  0  0  0
 18 14  1  0  0  0  0
 19 18  2  0  0  0  0
  3  5  1  0  0  0  0
 16 13  2  0  0  0  0
 15 19  1  0  0  0  0
M  END
> <#>
1822

> <PLATE>
LAT023

> <ROW>
F

> <COL>
9

> <COORD>
F09

> <LATID>
LAT023F09

> <Supplier>
Chembridge

> <Suplier_CAT#>
5652083

> <Name>
Novel

> <Sec_Name>
200_G02

> <Concentration_(mM)>
2.5

> <IC50_(µM)>
9

> <Yeast_Active?>
-

> <Pubchem_CID>
761914

$$$$
