
  -ISIS-  08130814242D

 31 33  0  0  0  0  0  0  0  0999 V2000
    7.1108    1.9548    0.0000 C   0  0  0  0  0  0  0  0  0  0  0  0
    5.9362    1.5273    0.0000 C   0  0  2  0  0  0  0  0  0  0  0  0
    4.6862    1.5273    0.0000 C   0  0  0  0  0  0  0  0  0  0  0  0
    4.0612    0.4448    0.0000 O   0  0  0  0  0  0  0  0  0  0  0  0
    4.6862   -0.6378    0.0000 C   0  0  1  0  0  0  0  0  0  0  0  0
    5.9362   -0.6378    0.0000 C   0  0  1  0  0  0  0  0  0  0  0  0
    6.5612    0.4448    0.0000 C   0  0  1  0  0  0  0  0  0  0  0  0
    7.8112    0.4448    0.0000 N   0  0  0  0  0  0  0  0  0  0  0  0
    8.4362    1.5273    0.0000 C   0  0  0  0  0  0  0  0  0  0  0  0
    6.5612   -1.7203    0.0000 O   0  0  0  0  0  0  0  0  0  0  0  0
    4.0612   -1.7203    0.0000 O   0  0  0  0  0  0  0  0  0  0  0  0
    2.8112   -1.7203    0.0000 C   0  0  1  0  0  0  0  0  0  0  0  0
    2.1862   -2.8028    0.0000 C   0  0  1  0  0  0  0  0  0  0  0  0
    0.9362   -2.8028    0.0000 C   0  0  0  0  0  0  0  0  0  0  0  0
    0.3112   -1.7203    0.0000 C   0  0  1  0  0  0  0  0  0  0  0  0
    0.9362   -0.6378    0.0000 C   0  0  2  0  0  0  0  0  0  0  0  0
    2.1862   -0.6378    0.0000 C   0  0  2  0  0  0  0  0  0  0  0  0
    2.8112    0.4448    0.0000 O   0  0  0  0  0  0  0  0  0  0  0  0
    0.3112    0.4448    0.0000 O   0  0  0  0  0  0  0  0  0  0  0  0
   -0.9388    0.4448    0.0000 C   0  0  2  0  0  0  0  0  0  0  0  0
   -1.5638    1.5273    0.0000 C   0  0  1  0  0  0  0  0  0  0  0  0
   -2.8138    1.5273    0.0000 C   0  0  0  0  0  0  0  0  0  0  0  0
   -3.4388    0.4448    0.0000 C   0  0  0  0  0  0  0  0  0  0  0  0
   -2.8138   -0.6378    0.0000 C   0  0  2  0  0  0  0  0  0  0  0  0
   -1.5638   -0.6378    0.0000 O   0  0  0  0  0  0  0  0  0  0  0  0
   -3.4388   -1.7203    0.0000 C   0  0  0  0  0  0  0  0  0  0  0  0
   -4.6888   -1.7203    0.0000 N   0  0  0  0  0  0  0  0  0  0  0  0
   -0.9388    2.6098    0.0000 N   0  0  0  0  0  0  0  0  0  0  0  0
   -0.9388   -1.7203    0.0000 N   0  0  0  0  0  0  0  0  0  0  0  0
    2.8112   -3.8854    0.0000 N   0  0  0  0  0  0  0  0  0  0  0  0
    5.7191    2.7583    0.0000 O   0  0  0  0  0  0  0  0  0  0  0  0
  2  1  1  1  0  0  0
  2  3  1  0  0  0  0
  3  4  1  0  0  0  0
  4  5  1  0  0  0  0
  5  6  1  0  0  0  0
  6  7  1  0  0  0  0
  2  7  1  0  0  0  0
  7  8  1  6  0  0  0
  8  9  1  0  0  0  0
  6 10  1  1  0  0  0
  5 11  1  1  0  0  0
 12 11  1  1  0  0  0
 12 13  1  0  0  0  0
 13 14  1  0  0  0  0
 14 15  1  0  0  0  0
 15 16  1  0  0  0  0
 16 17  1  0  0  0  0
 12 17  1  0  0  0  0
 17 18  1  6  0  0  0
 16 19  1  1  0  0  0
 20 19  1  1  0  0  0
 20 21  1  0  0  0  0
 21 22  1  0  0  0  0
 22 23  1  0  0  0  0
 23 24  1  0  0  0  0
 24 25  1  0  0  0  0
 20 25  1  0  0  0  0
 24 26  1  6  0  0  0
 26 27  1  0  0  0  0
 21 28  1  1  0  0  0
 15 29  1  6  0  0  0
 13 30  1  6  0  0  0
  2 31  1  6  0  0  0
M  END
> <#>
406

> <PLATE>
LAT006

> <ROW>
F

> <COL>
2

> <COORD>
F02

> <LATID>
LAT006F02

> <Supplier>
Bioshop

> <Suplier_CAT#>
GTA202

> <Name>
Gentamicin Sulfate

> <Concentration_(mM)>
2.5

> <IC50_(µM)>
inactive

> <Yeast_Active?>
-

> <Pubchem_CID>
72396

$$$$
