
  -ISIS-  08130814242D

 16 17  0  0  0  0  0  0  0  0999 V2000
    5.6944   -2.7125    0.0000 C   0  0  0  0  0  0  0  0  0  0  0  0
    4.9782   -3.1250    0.0000 C   0  0  0  0  0  0  0  0  0  0  0  0
    6.4064   -3.1250    0.0000 C   0  0  0  0  0  0  0  0  0  0  0  0
    6.4064   -3.9500    0.0000 C   0  0  0  0  0  0  0  0  0  0  0  0
    5.6944   -4.3625    0.0000 C   0  0  0  0  0  0  0  0  0  0  0  0
    4.9782   -3.9500    0.0000 C   0  0  0  0  0  0  0  0  0  0  0  0
    4.2620   -4.3625    0.0000 C   0  0  0  0  0  0  0  0  0  0  0  0
    3.5500   -3.9500    0.0000 C   0  0  0  0  0  0  0  0  0  0  0  0
    3.5500   -3.1250    0.0000 C   0  0  0  0  0  0  0  0  0  0  0  0
    4.2620   -2.7125    0.0000 C   0  0  0  0  0  0  0  0  0  0  0  0
    5.6875   -1.8875    0.0000 O   0  0  0  0  0  0  0  0  0  0  0  0
    5.6875   -5.1875    0.0000 O   0  0  0  0  0  0  0  0  0  0  0  0
    7.1167   -2.7083    0.0000 O   0  0  0  0  0  0  0  0  0  0  0  0
    7.1167   -4.3625    0.0000 O   0  0  0  0  0  0  0  0  0  0  0  0
    7.9417   -2.7083    0.0000 C   0  0  0  0  0  0  0  0  0  0  0  0
    7.9417   -4.3625    0.0000 C   0  0  0  0  0  0  0  0  0  0  0  0
  4  5  1  0  0  0  0
  5  6  1  0  0  0  0
  6  7  1  0  0  0  0
  7  8  2  0  0  0  0
  8  9  1  0  0  0  0
  9 10  2  0  0  0  0
  1 11  2  0  0  0  0
 10  2  1  0  0  0  0
  5 12  2  0  0  0  0
  2  6  2  0  0  0  0
  3 13  1  0  0  0  0
  2  1  1  0  0  0  0
  4 14  1  0  0  0  0
  1  3  1  0  0  0  0
 13 15  1  0  0  0  0
  3  4  2  0  0  0  0
 14 16  1  0  0  0  0
M  END
> <#>
223

> <PLATE>
LAT003

> <ROW>
G

> <COL>
9

> <COORD>
G09

> <LATID>
LAT003G09

> <Supplier>
Sigma

> <Suplier_CAT#>
D 5439

> <Name>
2,3-Dimethoxy-1,4-Naphthoquinone

> <Concentration_(mM)>
2.5

> <IC50_(µM)>
7.3

> <Yeast_Active?>
-

> <Pubchem_CID>
3136

> <Description>
Redox cycling agent used to study role of ROS (reactive oxygen species)

$$$$
