
  -ISIS-  08130814242D

 27 30  0  0  0  0  0  0  0  0999 V2000
    6.1042   -1.9375    0.0000 C   0  0  0  0  0  0  0  0  0  0  0  0
    2.8542   -0.7667    0.0000 N   0  0  3  0  0  0  0  0  0  0  0  0
    6.7542   -1.5667    0.0000 N   0  0  0  0  0  0  0  0  0  0  0  0
    1.5542   -0.7500    0.0000 C   0  0  0  0  0  0  0  0  0  0  0  0
    2.2042   -0.3875    0.0000 C   0  0  0  0  0  0  0  0  0  0  0  0
    5.4542   -1.5542    0.0000 C   0  0  0  0  0  0  0  0  0  0  0  0
    7.4042   -1.9500    0.0000 C   0  0  0  0  0  0  0  0  0  0  0  0
    6.1000   -2.7000    0.0000 O   0  0  0  0  0  0  0  0  0  0  0  0
    1.5500   -1.5042    0.0000 C   0  0  0  0  0  0  0  0  0  0  0  0
    8.0667   -1.5875    0.0000 C   0  0  0  0  0  0  0  0  0  0  0  0
    3.5167   -0.4042    0.0000 C   0  0  0  0  0  0  0  0  0  0  0  0
    2.8542   -1.5167    0.0000 C   0  0  0  0  0  0  0  0  0  0  0  0
    2.1875   -1.9000    0.0000 C   0  0  0  0  0  0  0  0  0  0  0  0
    4.8042   -1.9292    0.0000 C   0  0  0  0  0  0  0  0  0  0  0  0
    5.4667   -0.8000    0.0000 C   0  0  0  0  0  0  0  0  0  0  0  0
    8.7042   -1.9542    0.0000 C   0  0  0  0  0  0  0  0  0  0  0  0
    4.1667   -0.8000    0.0000 C   0  0  0  0  0  0  0  0  0  0  0  0
    4.8167   -0.4167    0.0000 C   0  0  0  0  0  0  0  0  0  0  0  0
    4.1542   -1.5500    0.0000 C   0  0  0  0  0  0  0  0  0  0  0  0
    9.3667   -1.6000    0.0000 Br  0  0  0  0  0  0  0  0  0  0  0  0
    8.0500   -3.0875    0.0000 C   0  0  0  0  0  0  0  0  0  0  0  0
    0.9167   -0.3542    0.0000 C   0  0  0  0  0  0  0  0  0  0  0  0
    7.4042   -2.7000    0.0000 C   0  0  0  0  0  0  0  0  0  0  0  0
    0.8875   -1.8667    0.0000 C   0  0  0  0  0  0  0  0  0  0  0  0
    8.7042   -2.7167    0.0000 C   0  0  0  0  0  0  0  0  0  0  0  0
    0.2542   -0.7167    0.0000 C   0  0  0  0  0  0  0  0  0  0  0  0
    0.2375   -1.4792    0.0000 C   0  0  0  0  0  0  0  0  0  0  0  0
  2 11  1  0  0  0  0
  3  1  1  0  0  0  0
  4  5  1  0  0  0  0
  5  2  1  0  0  0  0
  6  1  1  0  0  0  0
  7  3  1  0  0  0  0
  8  1  2  0  0  0  0
  9 13  1  0  0  0  0
 10  7  2  0  0  0  0
 11 17  1  0  0  0  0
 12  2  1  0  0  0  0
 13 12  1  0  0  0  0
 14  6  1  0  0  0  0
 15  6  2  0  0  0  0
 16 10  1  0  0  0  0
 17 18  2  0  0  0  0
 18 15  1  0  0  0  0
 19 14  2  0  0  0  0
 20 16  1  0  0  0  0
 21 23  2  0  0  0  0
 22  4  1  0  0  0  0
 23  7  1  0  0  0  0
 24  9  1  0  0  0  0
 25 21  1  0  0  0  0
 26 22  2  0  0  0  0
 27 24  2  0  0  0  0
 17 19  1  0  0  0  0
 16 25  2  0  0  0  0
  9  4  2  0  0  0  0
 27 26  1  0  0  0  0
M  END
> <#>
885

> <PLATE>
LAT012

> <ROW>
E

> <COL>
2

> <COORD>
E02

> <LATID>
LAT012E02

> <Supplier>
Chembridge

> <Suplier_CAT#>
5707132

> <Name>
Novel

> <Sec_Name>
226_B05

> <Concentration_(mM)>
2.5

> <IC50_(µM)>
29

> <Yeast_Active?>
+

> <Pubchem_CID>
1106355

$$$$
