
  -ISIS-  08130814242D

 28 31  0  0  0  0  0  0  0  0999 V2000
   -0.5625   -0.3542    0.0000 N   0  0  3  0  0  0  0  0  0  0  0  0
   -0.7833   -0.8167    0.0000 C   0  0  0  0  0  0  0  0  0  0  0  0
   -0.9208   -0.0167    0.0000 C   0  0  0  0  0  0  0  0  0  0  0  0
   -2.2500    1.2500    0.0000 S   0  0  3  0  0  0  0  0  0  0  0  0
   -1.3625   -0.2792    0.0000 C   0  0  0  0  0  0  0  0  0  0  0  0
   -1.2625   -0.7542    0.0000 C   0  0  0  0  0  0  0  0  0  0  0  0
   -0.0833   -0.2167    0.0000 C   0  0  3  0  0  0  0  0  0  0  0  0
   -0.9208    0.5000    0.0000 C   0  0  0  0  0  0  0  0  0  0  0  0
   -0.4833    0.7458    0.0000 C   0  0  0  0  0  0  0  0  0  0  0  0
   -0.0458    0.4833    0.0000 C   0  0  0  0  0  0  0  0  0  0  0  0
   -2.2458    0.7458    0.0000 O   0  0  0  0  0  0  0  0  0  0  0  0
   -2.7625    1.1708    0.0000 C   0  0  0  0  0  0  0  0  0  0  0  0
   -1.7833    0.4833    0.0000 C   0  0  0  0  0  0  0  0  0  0  0  0
   -1.7833   -0.0167    0.0000 C   0  0  0  0  0  0  0  0  0  0  0  0
   -1.3625    0.7458    0.0000 C   0  0  0  0  0  0  0  0  0  0  0  0
   -2.3208    1.7500    0.0000 O   0  0  0  0  0  0  0  0  0  0  0  0
   -1.6833    1.3333    0.0000 O   0  0  0  0  0  0  0  0  0  0  0  0
   -0.5458   -1.2792    0.0000 O   0  0  0  0  0  0  0  0  0  0  0  0
   -1.6000   -1.1375    0.0000 O   0  0  0  0  0  0  0  0  0  0  0  0
   -3.1000    1.5625    0.0000 C   0  0  0  0  0  0  0  0  0  0  0  0
   -2.9333    0.6833    0.0000 C   0  0  0  0  0  0  0  0  0  0  0  0
    0.3000   -0.5542    0.0000 C   0  0  0  0  0  0  0  0  0  0  0  0
    0.4167   -0.0792    0.0000 C   0  0  0  0  0  0  0  0  0  0  0  0
   -3.4333    0.5833    0.0000 C   0  0  0  0  0  0  0  0  0  0  0  0
   -3.6125    1.4625    0.0000 C   0  0  0  0  0  0  0  0  0  0  0  0
   -3.7833    0.9500    0.0000 C   0  0  0  0  0  0  0  0  0  0  0  0
   -0.4625    1.2625    0.0000 C   0  0  0  0  0  0  0  0  0  0  0  0
   -4.3000    0.8125    0.0000 C   0  0  0  0  0  0  0  0  0  0  0  0
  2  1  1  0  0  0  0
  3  1  1  0  0  0  0
  4 11  1  0  0  0  0
  5  3  1  0  0  0  0
  6  2  1  0  0  0  0
  7  1  1  0  0  0  0
  8  3  2  0  0  0  0
  9 10  2  0  0  0  0
 10  7  1  0  0  0  0
 11 13  1  0  0  0  0
 12  4  1  0  0  0  0
 13 15  2  0  0  0  0
 14  5  2  0  0  0  0
 15  8  1  0  0  0  0
 16  4  2  0  0  0  0
 17  4  2  0  0  0  0
 18  2  2  0  0  0  0
 19  6  2  0  0  0  0
 20 12  1  0  0  0  0
 21 12  2  0  0  0  0
 22  7  1  0  0  0  0
 23  7  1  0  0  0  0
 24 21  1  0  0  0  0
 25 20  2  0  0  0  0
 26 24  2  0  0  0  0
 27  9  1  0  0  0  0
 28 26  1  0  0  0  0
  5  6  1  0  0  0  0
  8  9  1  0  0  0  0
 13 14  1  0  0  0  0
 26 25  1  0  0  0  0
M  END
> <#>
1336

> <PLATE>
LAT017

> <ROW>
H

> <COL>
8

> <COORD>
H08

> <LATID>
LAT017H08

> <Supplier>
Chembridge

> <Suplier_CAT#>
7310632

> <Name>
Novel

> <Concentration_(mM)>
2.5

> <IC50_(µM)>
>100

> <Yeast_Active?>
-

> <Pubchem_CID>
NULL

$$$$
