
  -ISIS-  08130814242D

 28 29  0  0  0  0  0  0  0  0999 V2000
    3.8667    1.7083    0.0000 C   0  0  0  0  0  0  0  0  0  0  0  0
    4.2417    1.0583    0.0000 C   0  0  0  0  0  0  0  0  0  0  0  0
    4.2417    2.3583    0.0000 C   0  0  0  0  0  0  0  0  0  0  0  0
    3.1167    1.7083    0.0000 O   0  0  0  0  0  0  0  0  0  0  0  0
    1.9917    2.3583    0.0000 C   0  0  0  0  0  0  0  0  0  0  0  0
    4.9917    1.0583    0.0000 C   0  0  0  0  0  0  0  0  0  0  0  0
    4.9917    2.3583    0.0000 C   0  0  0  0  0  0  0  0  0  0  0  0
    2.7417    2.3583    0.0000 C   0  0  0  0  0  0  0  0  0  0  0  0
    8.3667    3.0083    0.0000 N   0  0  0  0  0  0  0  0  0  0  0  0
    5.3667    1.7083    0.0000 C   0  0  0  0  0  0  0  0  0  0  0  0
    1.6167    3.0083    0.0000 C   0  0  0  0  0  0  0  0  0  0  0  0
    6.4917    2.3583    0.0000 N   0  0  0  0  0  0  0  0  0  0  0  0
    3.8667    0.4083    0.0000 Cl  0  0  0  0  0  0  0  0  0  0  0  0
    3.8667    3.0083    0.0000 O   0  0  0  0  0  0  0  0  0  0  0  0
    7.6167    3.0083    0.0000 C   0  0  0  0  0  0  0  0  0  0  0  0
    1.9917    3.6583    0.0000 F   0  0  0  0  0  0  0  0  0  0  0  0
    6.1167    1.7083    0.0000 C   0  0  0  0  0  0  0  0  0  0  0  0
    7.2417    2.3583    0.0000 C   0  0  0  0  0  0  0  0  0  0  0  0
    1.6167    1.7083    0.0000 C   0  0  0  0  0  0  0  0  0  0  0  0
    8.7417    3.6583    0.0000 C   0  0  0  0  0  0  0  0  0  0  0  0
    0.8667    3.0083    0.0000 C   0  0  0  0  0  0  0  0  0  0  0  0
    7.2417    3.6583    0.0000 C   0  0  0  0  0  0  0  0  0  0  0  0
    4.2417    3.6583    0.0000 C   0  0  0  0  0  0  0  0  0  0  0  0
    8.3667    4.3042    0.0000 C   0  0  0  0  0  0  0  0  0  0  0  0
    0.8667    1.7083    0.0000 C   0  0  0  0  0  0  0  0  0  0  0  0
    0.4917    2.3583    0.0000 C   0  0  0  0  0  0  0  0  0  0  0  0
    7.6167    4.3042    0.0000 C   0  0  0  0  0  0  0  0  0  0  0  0
    9.4917    0.4083    0.0000 Cl  0  0  0  0  0  0  0  0  0  0  0  0
  2  1  2  0  0  0  0
  3  1  1  0  0  0  0
  4  1  1  0  0  0  0
  5  8  1  0  0  0  0
  6  2  1  0  0  0  0
  7  3  2  0  0  0  0
  8  4  1  0  0  0  0
  9 15  2  0  0  0  0
 10  7  1  0  0  0  0
 11  5  1  0  0  0  0
 12 17  1  0  0  0  0
 13  2  1  0  0  0  0
 14  3  1  0  0  0  0
 15 18  1  0  0  0  0
 16 11  1  0  0  0  0
 17 10  1  0  0  0  0
 18 12  1  0  0  0  0
 19  5  2  0  0  0  0
 20  9  1  0  0  0  0
 21 11  2  0  0  0  0
 22 15  1  0  0  0  0
 23 14  1  0  0  0  0
 24 27  1  0  0  0  0
 25 19  1  0  0  0  0
 26 25  2  0  0  0  0
 27 22  2  0  0  0  0
  6 10  2  0  0  0  0
 21 26  1  0  0  0  0
 24 20  2  0  0  0  0
M  END
> <#>
1460

> <PLATE>
LAT019

> <ROW>
D

> <COL>
4

> <COORD>
D04

> <LATID>
LAT019D04

> <Supplier>
Chembridge

> <Suplier_CAT#>
9028252

> <Name>
Novel

> <Concentration_(mM)>
2.5

> <IC50_(µM)>
>100

> <Yeast_Active?>
-

> <Pubchem_CID>
4720912

$$$$
