
  -ISIS-  08130814242D

 24 26  0  0  0  0  0  0  0  0999 V2000
   -1.4500    0.2625    0.0000 C   0  0  0  0  0  0  0  0  0  0  0  0
   -1.4500    1.2000    0.0000 C   0  0  0  0  0  0  0  0  0  0  0  0
   -2.2625   -0.2000    0.0000 C   0  0  0  0  0  0  0  0  0  0  0  0
   -2.2625    1.6708    0.0000 C   0  0  0  0  0  0  0  0  0  0  0  0
   -3.0708    1.2000    0.0000 C   0  0  0  0  0  0  0  0  0  0  0  0
   -0.6458   -0.2000    0.0000 C   0  0  0  0  0  0  0  0  0  0  0  0
   -3.0708    0.2625    0.0000 C   0  0  0  0  0  0  0  0  0  0  0  0
    3.4542    0.5833    0.0000 C   0  0  0  0  0  0  0  0  0  0  0  0
    2.7042    0.0333    0.0000 C   0  0  0  0  0  0  0  0  0  0  0  0
    0.1500    0.2625    0.0000 C   0  0  0  0  0  0  0  0  0  0  0  0
   -0.6500   -1.0000    0.0000 O   0  0  0  0  0  0  0  0  0  0  0  0
    3.3500    1.5125    0.0000 C   0  0  0  0  0  0  0  0  0  0  0  0
    1.1042   -0.1500    0.0000 O   0  0  0  0  0  0  0  0  0  0  0  0
    2.5000    1.8833    0.0000 C   0  0  0  0  0  0  0  0  0  0  0  0
    1.8500    0.3958    0.0000 C   0  0  0  0  0  0  0  0  0  0  0  0
   -0.6458    1.6708    0.0000 O   0  0  0  0  0  0  0  0  0  0  0  0
   -3.9458    1.6500    0.0000 O   0  0  0  0  0  0  0  0  0  0  0  0
    1.7500    1.3208    0.0000 C   0  0  0  0  0  0  0  0  0  0  0  0
   -3.8833   -0.1500    0.0000 C   0  0  0  0  0  0  0  0  0  0  0  0
    4.3167    0.2125    0.0000 C   0  0  0  0  0  0  0  0  0  0  0  0
    4.1000    2.0833    0.0000 C   0  0  0  0  0  0  0  0  0  0  0  0
   -3.8500   -1.1000    0.0000 C   0  0  0  0  0  0  0  0  0  0  0  0
    5.1000    0.7708    0.0000 C   0  0  0  0  0  0  0  0  0  0  0  0
    4.9542    1.7125    0.0000 C   0  0  0  0  0  0  0  0  0  0  0  0
  2  1  2  0  0  0  0
  3  1  1  0  0  0  0
  4  2  1  0  0  0  0
  5  7  1  0  0  0  0
  6  1  1  0  0  0  0
  7  3  2  0  0  0  0
  8  9  1  0  0  0  0
  9 15  2  0  0  0  0
 10  6  1  0  0  0  0
 11  6  2  0  0  0  0
 12 14  1  0  0  0  0
 13 10  1  0  0  0  0
 14 18  2  0  0  0  0
 15 13  1  0  0  0  0
 16  2  1  0  0  0  0
 17  5  1  0  0  0  0
 18 15  1  0  0  0  0
 19  7  1  0  0  0  0
 20  8  1  0  0  0  0
 21 12  1  0  0  0  0
 22 19  1  0  0  0  0
 23 20  2  0  0  0  0
 24 21  2  0  0  0  0
  4  5  2  0  0  0  0
 12  8  2  0  0  0  0
 24 23  1  0  0  0  0
M  END
> <#>
1279

> <PLATE>
LAT016

> <ROW>
G

> <COL>
11

> <COORD>
G11

> <LATID>
LAT016G11

> <Supplier>
Chembridge

> <Suplier_CAT#>
6677703

> <Name>
Novel

> <Concentration_(mM)>
2.5

> <IC50_(µM)>
42

> <Yeast_Active?>
+

> <Pubchem_CID>
1991614

$$$$
