
  -ISIS-  08130814242D

 25 27  0  0  0  0  0  0  0  0999 V2000
    6.1417   -2.8417    0.0000 Br  0  5  0  0  0  0  0  0  0  0  0  0
    3.7542   -2.8500    0.0000 N   0  3  0  0  0  0  0  0  0  0  0  0
    3.7417   -2.0167    0.0000 C   0  0  0  0  0  0  0  0  0  0  0  0
    3.0417   -3.2667    0.0000 C   0  0  0  0  0  0  0  0  0  0  0  0
    2.3167   -2.8542    0.0000 C   0  0  0  0  0  0  0  0  0  0  0  0
    3.0292   -1.6125    0.0000 C   0  0  0  0  0  0  0  0  0  0  0  0
    2.3167   -2.0292    0.0000 C   0  0  0  0  0  0  0  0  0  0  0  0
    4.4542   -1.6042    0.0000 C   0  0  0  0  0  0  0  0  0  0  0  0
    1.6042   -1.6167    0.0000 C   0  0  0  0  0  0  0  0  0  0  0  0
    3.0250   -0.8000    0.0000 C   0  0  0  0  0  0  0  0  0  0  0  0
    1.6042   -3.2667    0.0000 C   0  0  0  0  0  0  0  0  0  0  0  0
    3.0417   -4.0917    0.0000 C   0  0  0  0  0  0  0  0  0  0  0  0
    4.4667   -3.2542    0.0000 C   0  0  0  0  0  0  0  0  0  0  0  0
    4.4417   -0.7875    0.0000 C   0  0  0  0  0  0  0  0  0  0  0  0
    0.8917   -2.8542    0.0000 C   0  0  0  0  0  0  0  0  0  0  0  0
    3.7292   -0.3792    0.0000 C   0  0  0  0  0  0  0  0  0  0  0  0
    0.8917   -2.0292    0.0000 C   0  0  0  0  0  0  0  0  0  0  0  0
    5.1542   -0.3667    0.0000 N   0  0  0  0  0  0  0  0  0  0  0  0
    0.1792   -3.2667    0.0000 N   0  0  0  0  0  0  0  0  0  0  0  0
    3.7542   -4.4917    0.0000 C   0  0  0  0  0  0  0  0  0  0  0  0
    2.3167   -4.5000    0.0000 C   0  0  0  0  0  0  0  0  0  0  0  0
    5.1792   -2.8417    0.0000 C   0  0  0  0  0  0  0  0  0  0  0  0
    2.3167   -5.3250    0.0000 C   0  0  0  0  0  0  0  0  0  0  0  0
    3.7542   -5.3167    0.0000 C   0  0  0  0  0  0  0  0  0  0  0  0
    3.0417   -5.7375    0.0000 C   0  0  0  0  0  0  0  0  0  0  0  0
  3  2  1  0  0  0  0
  4  2  2  0  0  0  0
  5  4  1  0  0  0  0
  6  3  1  0  0  0  0
  7  5  1  0  0  0  0
  8  3  2  0  0  0  0
  9  7  2  0  0  0  0
 10  6  2  0  0  0  0
 11  5  2  0  0  0  0
 12  4  1  0  0  0  0
 13  2  1  0  0  0  0
 14  8  1  0  0  0  0
 15 11  1  0  0  0  0
 16 14  2  0  0  0  0
 17 15  2  0  0  0  0
 18 14  1  0  0  0  0
 19 15  1  0  0  0  0
 20 12  1  0  0  0  0
 21 12  2  0  0  0  0
 22 13  1  0  0  0  0
 23 21  1  0  0  0  0
 24 20  2  0  0  0  0
 25 24  1  0  0  0  0
  7  6  1  0  0  0  0
 10 16  1  0  0  0  0
 23 25  2  0  0  0  0
  9 17  1  0  0  0  0
M  CHG  2   1  -1   2   1
M  END
> <#>
95

> <PLATE>
LAT002

> <ROW>
G

> <COL>
3

> <COORD>
G03

> <LATID>
LAT002G03

> <Supplier>
Microsource

> <Suplier_CAT#>
01503806

> <Name>
Homidium Bromide

> <Concentration_(mM)>
2.5

> <IC50_(µM)>
23

> <Yeast_Active?>
-

> <Pubchem_CID>
3624

> <Description>
Antiprotozoal, Intercalcates DNA

$$$$
