
  -ISIS-  08130814242D

 20 21  0  0  0  0  0  0  0  0999 V2000
   -0.4833   -0.0542    0.0000 C   0  0  0  0  0  0  0  0  0  0  0  0
   -0.4833    0.7625    0.0000 C   0  0  0  0  0  0  0  0  0  0  0  0
    0.2292   -0.4667    0.0000 C   0  0  0  0  0  0  0  0  0  0  0  0
    0.9500   -0.0542    0.0000 C   0  0  0  0  0  0  0  0  0  0  0  0
   -1.1958    1.1708    0.0000 C   0  0  0  0  0  0  0  0  0  0  0  0
   -1.1958   -0.4667    0.0000 C   0  0  0  0  0  0  0  0  0  0  0  0
    1.6542   -0.4667    0.0000 C   0  0  0  0  0  0  0  0  0  0  0  0
    0.2292   -1.3000    0.0000 O   0  0  0  0  0  0  0  0  0  0  0  0
   -1.9083    0.7625    0.0000 C   0  0  0  0  0  0  0  0  0  0  0  0
    2.3667   -0.0542    0.0000 C   0  0  0  0  0  0  0  0  0  0  0  0
    0.2167    1.1833    0.0000 O   0  0  0  0  0  0  0  0  0  0  0  0
   -1.9083   -0.0542    0.0000 C   0  0  0  0  0  0  0  0  0  0  0  0
    3.8000    0.7625    0.0000 C   0  0  0  0  0  0  0  0  0  0  0  0
    3.0875   -0.4667    0.0000 C   0  0  0  0  0  0  0  0  0  0  0  0
    2.3667    0.7500    0.0000 C   0  0  0  0  0  0  0  0  0  0  0  0
    3.0792    1.1708    0.0000 C   0  0  0  0  0  0  0  0  0  0  0  0
    3.8000   -0.0542    0.0000 C   0  0  0  0  0  0  0  0  0  0  0  0
   -2.6208    1.1708    0.0000 O   0  0  0  0  0  0  0  0  0  0  0  0
    4.5042    1.1833    0.0000 O   0  0  0  0  0  0  0  0  0  0  0  0
    5.2292    0.7708    0.0000 C   0  0  0  0  0  0  0  0  0  0  0  0
  2  1  1  0  0  0  0
  3  1  1  0  0  0  0
  4  3  1  0  0  0  0
  5  2  2  0  0  0  0
  6  1  2  0  0  0  0
  7  4  2  0  0  0  0
  8  3  2  0  0  0  0
  9 12  2  0  0  0  0
 10  7  1  0  0  0  0
 11  2  1  0  0  0  0
 12  6  1  0  0  0  0
 13 16  1  0  0  0  0
 14 10  2  0  0  0  0
 15 10  1  0  0  0  0
 16 15  2  0  0  0  0
 17 14  1  0  0  0  0
 18  9  1  0  0  0  0
 19 13  1  0  0  0  0
 20 19  1  0  0  0  0
  9  5  1  0  0  0  0
 13 17  2  0  0  0  0
M  END
> <#>
1306

> <PLATE>
LAT017

> <ROW>
B

> <COL>
5

> <COORD>
B05

> <LATID>
LAT017B05

> <Supplier>
Chembridge

> <Suplier_CAT#>
6654940

> <Name>
Novel

> <Concentration_(mM)>
2.5

> <IC50_(µM)>
79

> <Yeast_Active?>
+

> <Pubchem_CID>
166795

$$$$
