
  -ISIS-  08130814242D

 25 27  0  0  0  0  0  0  0  0999 V2000
   -0.9333    2.0208    0.0000 C   0  0  0  0  0  0  0  0  0  0  0  0
    0.3167    2.0333    0.0000 C   0  0  3  0  0  0  0  0  0  0  0  0
   -1.4958    0.9708    0.0000 N   0  0  0  0  0  0  0  0  0  0  0  0
   -2.7958    0.9625    0.0000 N   0  0  0  0  0  0  0  0  0  0  0  0
   -1.5125    3.0833    0.0000 O   0  0  0  0  0  0  0  0  0  0  0  0
    1.5500    2.0458    0.0000 C   0  0  0  0  0  0  0  0  0  0  0  0
    0.3167    0.8000    0.0000 C   0  0  0  0  0  0  0  0  0  0  0  0
   -2.8125   -1.1667    0.0000 C   0  0  0  0  0  0  0  0  0  0  0  0
   -3.4000   -0.1042    0.0000 C   0  0  0  0  0  0  0  0  0  0  0  0
    0.3167    3.2958    0.0000 O   0  0  0  0  0  0  0  0  0  0  0  0
   -3.4000   -2.2500    0.0000 C   0  0  0  0  0  0  0  0  0  0  0  0
   -2.7625   -3.2875    0.0000 Cl  0  0  0  0  0  0  0  0  0  0  0  0
   -5.2708   -1.1875    0.0000 C   0  0  0  0  0  0  0  0  0  0  0  0
    2.1542    0.9708    0.0000 C   0  0  0  0  0  0  0  0  0  0  0  0
    2.1875    3.0958    0.0000 C   0  0  0  0  0  0  0  0  0  0  0  0
    1.3792    0.1958    0.0000 C   0  0  0  0  0  0  0  0  0  0  0  0
   -0.7208    0.2125    0.0000 C   0  0  0  0  0  0  0  0  0  0  0  0
   -4.6708   -0.1042    0.0000 C   0  0  0  0  0  0  0  0  0  0  0  0
   -4.6708   -2.2500    0.0000 C   0  0  0  0  0  0  0  0  0  0  0  0
    3.3875    0.9708    0.0000 C   0  0  0  0  0  0  0  0  0  0  0  0
    3.3875    3.1125    0.0000 C   0  0  0  0  0  0  0  0  0  0  0  0
    1.3792   -1.0167    0.0000 C   0  0  0  0  0  0  0  0  0  0  0  0
   -0.7208   -1.0167    0.0000 C   0  0  0  0  0  0  0  0  0  0  0  0
    4.0167    2.0500    0.0000 C   0  0  0  0  0  0  0  0  0  0  0  0
    0.3375   -1.6500    0.0000 C   0  0  0  0  0  0  0  0  0  0  0  0
  2  1  1  0  0  0  0
  3  1  1  0  0  0  0
  4  3  1  0  0  0  0
  5  1  2  0  0  0  0
  6  2  1  0  0  0  0
  7  2  1  0  0  0  0
  8  9  1  0  0  0  0
  9  4  1  0  0  0  0
 10  2  1  0  0  0  0
 11  8  2  0  0  0  0
 12 11  1  0  0  0  0
 13 18  1  0  0  0  0
 14  6  2  0  0  0  0
 15  6  1  0  0  0  0
 16  7  1  0  0  0  0
 17  7  2  0  0  0  0
 18  9  2  0  0  0  0
 19 13  2  0  0  0  0
 20 14  1  0  0  0  0
 21 15  2  0  0  0  0
 22 16  2  0  0  0  0
 23 17  1  0  0  0  0
 24 21  1  0  0  0  0
 25 23  2  0  0  0  0
 25 22  1  0  0  0  0
 24 20  2  0  0  0  0
 19 11  1  0  0  0  0
M  END
> <#>
952

> <PLATE>
LAT012

> <ROW>
H

> <COL>
10

> <COORD>
H10

> <LATID>
LAT012H10

> <Supplier>
Chembridge

> <Suplier_CAT#>
5732146

> <Name>
Novel

> <Sec_Name>
232_G11

> <Concentration_(mM)>
2.5

> <IC50_(µM)>
20

> <Yeast_Active?>
-

> <Pubchem_CID>
1362251

$$$$
