
  -ISIS-  08130814242D

 26 27  0  0  0  0  0  0  0  0999 V2000
   14.8542   -5.0542    0.0000 N   0  3  0  0  0  0  0  0  0  0  0  0
    4.5292   -3.0375    0.0000 C   0  0  0  0  0  0  0  0  0  0  0  0
    2.2542   -3.0375    0.0000 N   0  0  0  0  0  0  0  0  0  0  0  0
   12.5292   -5.0542    0.0000 C   0  0  0  0  0  0  0  0  0  0  0  0
    5.6542   -5.0542    0.0000 N   0  0  0  0  0  0  0  0  0  0  0  0
   11.3875   -7.0667    0.0000 C   0  0  0  0  0  0  0  0  0  0  0  0
    1.1292   -1.1292    0.0000 C   0  0  0  0  0  0  0  0  0  0  0  0
    8.0000   -5.0542    0.0000 C   0  0  0  0  0  0  0  0  0  0  0  0
    9.1292   -7.0667    0.0000 C   0  0  0  0  0  0  0  0  0  0  0  0
   -1.2000   -1.1292    0.0000 C   0  0  0  0  0  0  0  0  0  0  0  0
   16.0000   -7.0667    0.0000 O   0  5  0  0  0  0  0  0  0  0  0  0
    5.6542   -1.1292    0.0000 S   0  0  0  0  0  0  0  0  0  0  0  0
   16.0000   -3.0375    0.0000 O   0  0  0  0  0  0  0  0  0  0  0  0
   -2.3333    0.8833    0.0000 C   0  0  0  0  0  0  0  0  0  0  0  0
   11.3875   -3.0375    0.0000 C   0  0  0  0  0  0  0  0  0  0  0  0
    9.1292   -3.0375    0.0000 C   0  0  0  0  0  0  0  0  0  0  0  0
    2.2542    0.8833    0.0000 O   0  0  0  0  0  0  0  0  0  0  0  0
   -4.6708    0.8833    0.0000 C   0  0  0  0  0  0  0  0  0  0  0  0
    7.9167   -9.0875    0.0000 Br  0  0  0  0  0  0  0  0  0  0  0  0
   -9.1917    0.8833    0.0000 C   0  0  0  0  0  0  0  0  0  0  0  0
   -5.8000    2.9000    0.0000 C   0  0  0  0  0  0  0  0  0  0  0  0
   -5.8000   -1.1292    0.0000 C   0  0  0  0  0  0  0  0  0  0  0  0
   -8.0667   -1.1292    0.0000 C   0  0  0  0  0  0  0  0  0  0  0  0
   -8.0667    2.9000    0.0000 C   0  0  0  0  0  0  0  0  0  0  0  0
  -11.5375    0.8833    0.0000 O   0  0  0  0  0  0  0  0  0  0  0  0
  -12.6667    2.9000    0.0000 C   0  0  0  0  0  0  0  0  0  0  0  0
  2  5  1  0  0  0  0
  3  2  1  0  0  0  0
  4  1  1  0  0  0  0
  5  8  1  0  0  0  0
  6  4  2  0  0  0  0
  7  3  1  0  0  0  0
  8 16  1  0  0  0  0
  9  6  1  0  0  0  0
 10  7  1  0  0  0  0
 11  1  1  0  0  0  0
 12  2  2  0  0  0  0
 13  1  2  0  0  0  0
 14 10  2  0  0  0  0
 15  4  1  0  0  0  0
 16 15  2  0  0  0  0
 17  7  2  0  0  0  0
 18 14  1  0  0  0  0
 19  9  1  0  0  0  0
 20 23  1  0  0  0  0
 21 18  2  0  0  0  0
 22 18  1  0  0  0  0
 23 22  2  0  0  0  0
 24 21  1  0  0  0  0
 25 20  1  0  0  0  0
 26 25  1  0  0  0  0
  8  9  2  0  0  0  0
 20 24  2  0  0  0  0
M  CHG  2   1   1  11  -1
M  END
> <#>
628

> <PLATE>
LAT008

> <ROW>
D

> <COL>
10

> <COORD>
D10

> <LATID>
LAT008D10

> <Supplier>
Chembridge

> <Suplier_CAT#>
5539720

> <Name>
Novel

> <Sec_Name>
155_H06

> <Concentration_(mM)>
2.5

> <IC50_(µM)>
60

> <Yeast_Active?>
-

> <Pubchem_CID>
2851049

$$$$
