
  -ISIS-  08130814242D

 18 19  0  0  0  0  0  0  0  0999 V2000
    2.4167    3.5000    0.0000 C   0  0  0  0  0  0  0  0  0  0  0  0
    3.6292    4.2042    0.0000 C   0  0  0  0  0  0  0  0  0  0  0  0
    4.8500    3.5208    0.0000 C   0  0  0  0  0  0  0  0  0  0  0  0
    6.0542    4.2167    0.0000 C   0  0  0  0  0  0  0  0  0  0  0  0
    7.2667    3.5250    0.0000 C   0  0  0  0  0  0  0  0  0  0  0  0
    8.4042    4.3542    0.0000 O   0  0  0  0  0  0  0  0  0  0  0  0
    1.2125    4.1917    0.0000 C   0  0  0  0  0  0  0  0  0  0  0  0
    2.4167    2.0958    0.0000 C   0  0  0  0  0  0  0  0  0  0  0  0
    7.7042    2.1958    0.0000 C   0  0  0  0  0  0  0  0  0  0  0  0
    3.6250    5.6042    0.0000 O   0  0  0  0  0  0  0  0  0  0  0  0
    9.5292    3.5333    0.0000 C   0  0  0  0  0  0  0  0  0  0  0  0
    6.0500    5.6167    0.0000 O   0  0  0  0  0  0  0  0  0  0  0  0
    9.0875    2.1833    0.0000 C   0  0  0  0  0  0  0  0  0  0  0  0
    0.0042    3.5083    0.0000 C   0  0  0  0  0  0  0  0  0  0  0  0
    1.2000    1.4083    0.0000 C   0  0  0  0  0  0  0  0  0  0  0  0
    0.0000    2.1083    0.0000 C   0  0  0  0  0  0  0  0  0  0  0  0
    1.2042    5.5917    0.0000 O   0  0  0  0  0  0  0  0  0  0  0  0
    1.1917    0.0000    0.0000 Cl  0  0  0  0  0  0  0  0  0  0  0  0
  2  1  1  0  0  0  0
  3  2  1  0  0  0  0
  4  3  1  0  0  0  0
  5  4  1  0  0  0  0
  6  5  1  0  0  0  0
  7  1  2  0  0  0  0
  8  1  1  0  0  0  0
  9  5  2  0  0  0  0
 10  2  2  0  0  0  0
 11  6  1  0  0  0  0
 12  4  2  0  0  0  0
 13  9  1  0  0  0  0
 14  7  1  0  0  0  0
 15  8  2  0  0  0  0
 16 15  1  0  0  0  0
 17  7  1  0  0  0  0
 18 15  1  0  0  0  0
 16 14  2  0  0  0  0
 13 11  2  0  0  0  0
M  END
> <#>
1219

> <PLATE>
LAT016

> <ROW>
C

> <COL>
4

> <COORD>
C04

> <LATID>
LAT016C04

> <Supplier>
Chembridge

> <Suplier_CAT#>
5969517

> <Name>
Novel

> <Concentration_(mM)>
2.5

> <IC50_(µM)>
inactive

> <Yeast_Active?>
+

> <Pubchem_CID>
254790

$$$$
