
  -ISIS-  08130814242D

 22 24  0  0  0  0  0  0  0  0999 V2000
    0.7042    0.5708    0.0000 N   0  0  3  0  0  0  0  0  0  0  0  0
    0.3167   -0.6542    0.0000 C   0  0  0  0  0  0  0  0  0  0  0  0
   -1.3500    0.5458    0.0000 C   0  0  0  0  0  0  0  0  0  0  0  0
   -0.3125    1.3208    0.0000 C   0  0  0  0  0  0  0  0  0  0  0  0
   -0.9708   -0.6542    0.0000 S   0  0  0  0  0  0  0  0  0  0  0  0
    1.9000    1.0000    0.0000 C   0  0  0  0  0  0  0  0  0  0  0  0
   -2.6208    0.5458    0.0000 C   0  0  0  0  0  0  0  0  0  0  0  0
    0.9375   -1.4875    0.0000 S   0  0  0  0  0  0  0  0  0  0  0  0
    2.8042    0.1500    0.0000 C   0  0  0  0  0  0  0  0  0  0  0  0
   -3.2500   -0.5292    0.0000 C   0  0  0  0  0  0  0  0  0  0  0  0
   -0.3125    2.5833    0.0000 O   0  0  0  0  0  0  0  0  0  0  0  0
   -4.5333   -0.5292    0.0000 C   0  0  0  0  0  0  0  0  0  0  0  0
    4.0042    0.5458    0.0000 C   0  0  0  0  0  0  0  0  0  0  0  0
   -5.1583    0.5625    0.0000 Cl  0  0  0  0  0  0  0  0  0  0  0  0
    2.1292    2.1958    0.0000 C   0  0  0  0  0  0  0  0  0  0  0  0
    4.9042   -0.3292    0.0000 O   0  0  0  0  0  0  0  0  0  0  0  0
    3.3375    2.6000    0.0000 C   0  0  0  0  0  0  0  0  0  0  0  0
   -2.6208   -1.6375    0.0000 C   0  0  0  0  0  0  0  0  0  0  0  0
   -5.1833   -1.6167    0.0000 C   0  0  0  0  0  0  0  0  0  0  0  0
    4.3000    1.8125    0.0000 C   0  0  0  0  0  0  0  0  0  0  0  0
   -3.2625   -2.7500    0.0000 C   0  0  0  0  0  0  0  0  0  0  0  0
   -4.5458   -2.7500    0.0000 C   0  0  0  0  0  0  0  0  0  0  0  0
  2  1  1  0  0  0  0
  3  4  1  0  0  0  0
  4  1  1  0  0  0  0
  5  2  1  0  0  0  0
  6  1  1  0  0  0  0
  7  3  2  0  0  0  0
  8  2  2  0  0  0  0
  9  6  1  0  0  0  0
 10  7  1  0  0  0  0
 11  4  2  0  0  0  0
 12 10  1  0  0  0  0
 13  9  2  0  0  0  0
 14 12  1  0  0  0  0
 15  6  2  0  0  0  0
 16 13  1  0  0  0  0
 17 15  1  0  0  0  0
 18 10  2  0  0  0  0
 19 12  2  0  0  0  0
 20 17  2  0  0  0  0
 21 18  1  0  0  0  0
 22 21  2  0  0  0  0
  5  3  1  0  0  0  0
 20 13  1  0  0  0  0
 19 22  1  0  0  0  0
M  END
> <#>
690

> <PLATE>
LAT009

> <ROW>
B

> <COL>
8

> <COORD>
B08

> <LATID>
LAT009B08

> <Supplier>
Chembridge

> <Suplier_CAT#>
5555241

> <Name>
Novel

> <Sec_Name>
165_B05

> <Concentration_(mM)>
2.5

> <IC50_(µM)>
28

> <Yeast_Active?>
+

> <Pubchem_CID>
1365078

$$$$
