
  -ISIS-  08130814242D

 29 30  0  0  0  0  0  0  0  0999 V2000
    2.5500    1.8000    0.0000 Cl  0  5  0  0  0  0  0  0  0  0  0  0
    0.9875   -0.3292    0.0000 C   0  0  0  0  0  0  0  0  0  0  0  0
    0.9875    1.9208    0.0000 N   0  3  0  0  0  0  0  0  0  0  0  0
    0.9875   -1.0875    0.0000 C   0  0  0  0  0  0  0  0  0  0  0  0
    0.9875    1.1708    0.0000 C   0  0  0  0  0  0  0  0  0  0  0  0
    1.6375    0.0458    0.0000 C   0  0  0  0  0  0  0  0  0  0  0  0
    0.3417    0.0458    0.0000 C   0  0  0  0  0  0  0  0  0  0  0  0
    1.6375    0.7958    0.0000 C   0  0  0  0  0  0  0  0  0  0  0  0
    0.3417    0.7958    0.0000 C   0  0  0  0  0  0  0  0  0  0  0  0
    1.6375   -1.4542    0.0000 C   0  0  0  0  0  0  0  0  0  0  0  0
    0.3417   -1.4542    0.0000 C   0  0  0  0  0  0  0  0  0  0  0  0
    2.9292   -2.2042    0.0000 C   0  0  0  0  0  0  0  0  0  0  0  0
   -0.9583   -2.2042    0.0000 C   0  0  0  0  0  0  0  0  0  0  0  0
    3.5875   -2.5875    0.0000 N   0  0  3  0  0  0  0  0  0  0  0  0
   -1.6208   -2.5792    0.0000 N   0  0  3  0  0  0  0  0  0  0  0  0
    1.6375   -2.2042    0.0000 C   0  0  0  0  0  0  0  0  0  0  0  0
   -0.3083   -1.0792    0.0000 C   0  0  0  0  0  0  0  0  0  0  0  0
    2.2792   -1.0792    0.0000 C   0  0  0  0  0  0  0  0  0  0  0  0
    0.3417   -2.2042    0.0000 C   0  0  0  0  0  0  0  0  0  0  0  0
   -0.9583   -1.4542    0.0000 C   0  0  0  0  0  0  0  0  0  0  0  0
    2.9292   -1.4542    0.0000 C   0  0  0  0  0  0  0  0  0  0  0  0
   -0.3083   -2.5792    0.0000 C   0  0  0  0  0  0  0  0  0  0  0  0
    2.2792   -2.5792    0.0000 C   0  0  0  0  0  0  0  0  0  0  0  0
    0.3375    2.2958    0.0000 C   0  0  0  0  0  0  0  0  0  0  0  0
    1.6292    2.2958    0.0000 C   0  0  0  0  0  0  0  0  0  0  0  0
    3.5875   -3.3375    0.0000 C   0  0  0  0  0  0  0  0  0  0  0  0
    4.2292   -2.2125    0.0000 C   0  0  0  0  0  0  0  0  0  0  0  0
   -2.2708   -2.2042    0.0000 C   0  0  0  0  0  0  0  0  0  0  0  0
   -1.6208   -3.3375    0.0000 C   0  0  0  0  0  0  0  0  0  0  0  0
  3  5  2  0  0  0  0
  4  2  2  0  0  0  0
  5  9  1  0  0  0  0
  6  2  1  0  0  0  0
  7  2  1  0  0  0  0
  8  6  2  0  0  0  0
  9  7  2  0  0  0  0
 10  4  1  0  0  0  0
 11  4  1  0  0  0  0
 12 21  2  0  0  0  0
 13 20  1  0  0  0  0
 14 12  1  0  0  0  0
 15 13  1  0  0  0  0
 16 10  1  0  0  0  0
 17 11  1  0  0  0  0
 18 10  2  0  0  0  0
 19 11  2  0  0  0  0
 20 17  2  0  0  0  0
 21 18  1  0  0  0  0
 22 19  1  0  0  0  0
 23 16  2  0  0  0  0
 24  3  1  0  0  0  0
 25  3  1  0  0  0  0
 26 14  1  0  0  0  0
 27 14  1  0  0  0  0
 28 15  1  0  0  0  0
 29 15  1  0  0  0  0
  8  5  1  0  0  0  0
 13 22  2  0  0  0  0
 23 12  1  0  0  0  0
M  CHG  2   1  -1   3   1
M  END
> <#>
59

> <PLATE>
LAT001

> <ROW>
C

> <COL>
9

> <COORD>
C09

> <LATID>
LAT001C09

> <Supplier>
Microsource

> <Suplier_CAT#>
01500315

> <Name>
Gentian Violet

> <Concentration_(mM)>
2.5

> <IC50_(µM)>
2.5

> <Yeast_Active?>
+

> <Pubchem_CID>
313

> <Description>
Antibacterial, Anthelmintic

$$$$
