
  -ISIS-  08130814242D

 15 16  0  0  0  0  0  0  0  0999 V2000
    6.4042   -1.7542    0.0000 C   0  0  0  0  0  0  0  0  0  0  0  0
    6.1417   -0.9667    0.0000 N   0  0  0  0  0  0  0  0  0  0  0  0
    7.1875   -2.0042    0.0000 N   0  3  0  0  0  0  0  0  0  0  0  0
    5.7292   -2.2375    0.0000 N   0  0  0  0  0  0  0  0  0  0  0  0
    5.0667   -1.7542    0.0000 N   0  0  3  0  0  0  0  0  0  0  0  0
    5.3167   -0.9667    0.0000 C   0  0  0  0  0  0  0  0  0  0  0  0
    7.3625   -2.8125    0.0000 O   0  5  0  0  0  0  0  0  0  0  0  0
    7.8042   -1.4542    0.0000 O   0  0  0  0  0  0  0  0  0  0  0  0
    4.2792   -2.0042    0.0000 C   0  0  0  0  0  0  0  0  0  0  0  0
    3.3250   -3.0667    0.0000 N   0  0  0  0  0  0  0  0  0  0  0  0
    4.1125   -2.8167    0.0000 C   0  0  0  0  0  0  0  0  0  0  0  0
    3.1542   -3.8667    0.0000 C   0  0  0  0  0  0  0  0  0  0  0  0
    4.7167   -3.3625    0.0000 C   0  0  0  0  0  0  0  0  0  0  0  0
    3.7667   -4.4250    0.0000 C   0  0  0  0  0  0  0  0  0  0  0  0
    4.5542   -4.1667    0.0000 C   0  0  0  0  0  0  0  0  0  0  0  0
  2  1  1  0  0  0  0
  3  1  1  0  0  0  0
  4  1  2  0  0  0  0
  5  4  1  0  0  0  0
  6  2  2  0  0  0  0
  7  3  1  0  0  0  0
  8  3  2  0  0  0  0
  9  5  1  0  0  0  0
 10 11  2  0  0  0  0
 11  9  1  0  0  0  0
 12 10  1  0  0  0  0
 13 11  1  0  0  0  0
 14 15  1  0  0  0  0
 15 13  2  0  0  0  0
  6  5  1  0  0  0  0
 12 14  2  0  0  0  0
M  CHG  2   3   1   7  -1
M  END
> <#>
1431

> <PLATE>
LAT018

> <ROW>
G

> <COL>
10

> <COORD>
G10

> <LATID>
LAT018G10

> <Supplier>
Chembridge

> <Suplier_CAT#>
7815161

> <Name>
Novel

> <Concentration_(mM)>
2.5

> <IC50_(µM)>
>100

> <Yeast_Active?>
-

> <Pubchem_CID>
714392

$$$$
