
  -ISIS-  08130814242D

 19 20  0  0  0  0  0  0  0  0999 V2000
   -1.1500    0.3458    0.0000 N   0  0  0  0  0  0  0  0  0  0  0  0
   -0.2500    0.3458    0.0000 C   0  0  0  0  0  0  0  0  0  0  0  0
    0.2042    1.1000    0.0000 C   0  0  0  0  0  0  0  0  0  0  0  0
   -3.8125    0.3625    0.0000 C   0  0  0  0  0  0  0  0  0  0  0  0
   -1.5958    1.1208    0.0000 C   0  0  0  0  0  0  0  0  0  0  0  0
    0.1875   -0.4500    0.0000 C   0  0  0  0  0  0  0  0  0  0  0  0
   -4.2500    1.1208    0.0000 C   0  0  0  0  0  0  0  0  0  0  0  0
   -2.9125    0.3458    0.0000 C   0  0  0  0  0  0  0  0  0  0  0  0
   -3.7958    1.9000    0.0000 C   0  0  0  0  0  0  0  0  0  0  0  0
    1.0875   -0.4542    0.0000 C   0  0  0  0  0  0  0  0  0  0  0  0
    1.0875    1.1000    0.0000 C   0  0  0  0  0  0  0  0  0  0  0  0
   -2.4708    1.1208    0.0000 C   0  0  0  0  0  0  0  0  0  0  0  0
    1.5292    0.3208    0.0000 C   0  0  0  0  0  0  0  0  0  0  0  0
   -2.9125    1.9000    0.0000 C   0  0  0  0  0  0  0  0  0  0  0  0
   -4.2500   -0.4375    0.0000 O   0  0  0  0  0  0  0  0  0  0  0  0
    1.5500    1.8708    0.0000 Cl  0  0  0  0  0  0  0  0  0  0  0  0
   -0.2708   -1.2042    0.0000 O   0  0  0  0  0  0  0  0  0  0  0  0
   -5.1333    1.1208    0.0000 O   0  0  0  0  0  0  0  0  0  0  0  0
   -5.1583   -0.4375    0.0000 C   0  0  0  0  0  0  0  0  0  0  0  0
  2  1  1  0  0  0  0
  3  2  2  0  0  0  0
  4  8  1  0  0  0  0
  5  1  2  0  0  0  0
  6  2  1  0  0  0  0
  7  9  1  0  0  0  0
  8 12  2  0  0  0  0
  9 14  2  0  0  0  0
 10  6  2  0  0  0  0
 11  3  1  0  0  0  0
 12  5  1  0  0  0  0
 13 10  1  0  0  0  0
 14 12  1  0  0  0  0
 15  4  1  0  0  0  0
 16 11  1  0  0  0  0
 17  6  1  0  0  0  0
 18  7  1  0  0  0  0
 19 15  1  0  0  0  0
 13 11  2  0  0  0  0
  7  4  2  0  0  0  0
M  END
> <#>
582

> <PLATE>
LAT008

> <ROW>
F

> <COL>
4

> <COORD>
F04

> <LATID>
LAT008F04

> <Supplier>
Chembridge

> <Suplier_CAT#>
5467830

> <Name>
Novel

> <Sec_Name>
132_D05

> <Concentration_(mM)>
2.5

> <IC50_(µM)>
32

> <Yeast_Active?>
-

> <Pubchem_CID>
NULL

$$$$
