
  -ISIS-  08130814242D

 29 32  0  0  0  0  0  0  0  0999 V2000
    1.8625   -0.3292    0.0000 C   0  0  3  0  0  0  0  0  0  0  0  0
    1.8625   -1.5417    0.0000 N   0  0  3  0  0  0  0  0  0  0  0  0
    2.2792   -0.9042    0.0000 C   0  0  0  0  0  0  0  0  0  0  0  0
    1.1417   -0.5625    0.0000 C   0  0  0  0  0  0  0  0  0  0  0  0
    1.1417   -1.3167    0.0000 C   0  0  0  0  0  0  0  0  0  0  0  0
    2.6292    0.3750    0.0000 C   0  0  0  0  0  0  0  0  0  0  0  0
    3.5042    0.2208    0.0000 C   0  0  0  0  0  0  0  0  0  0  0  0
    3.9625    0.8125    0.0000 C   0  0  0  0  0  0  0  0  0  0  0  0
    2.1125   -2.2542    0.0000 C   0  0  0  0  0  0  0  0  0  0  0  0
    0.4917   -1.6917    0.0000 C   0  0  0  0  0  0  0  0  0  0  0  0
    0.4917   -0.1792    0.0000 C   0  0  0  0  0  0  0  0  0  0  0  0
    3.0042   -0.9667    0.0000 O   0  0  0  0  0  0  0  0  0  0  0  0
    4.7042    0.7125    0.0000 C   0  0  0  0  0  0  0  0  0  0  0  0
    3.7542   -0.3125    0.0000 O   0  0  0  0  0  0  0  0  0  0  0  0
    1.5042    0.4708    0.0000 O   0  0  0  0  0  0  0  0  0  0  0  0
   -0.1583   -0.5625    0.0000 C   0  0  0  0  0  0  0  0  0  0  0  0
   -0.1583   -1.3167    0.0000 C   0  0  0  0  0  0  0  0  0  0  0  0
    1.6292   -2.8250    0.0000 C   0  0  0  0  0  0  0  0  0  0  0  0
   -0.8083   -0.1875    0.0000 Br  0  0  0  0  0  0  0  0  0  0  0  0
    4.9875    0.0208    0.0000 O   0  0  0  0  0  0  0  0  0  0  0  0
    3.6750    1.5083    0.0000 C   0  0  0  0  0  0  0  0  0  0  0  0
    5.1625    1.3083    0.0000 C   0  0  0  0  0  0  0  0  0  0  0  0
    1.8792   -3.5292    0.0000 C   0  0  0  0  0  0  0  0  0  0  0  0
    0.8917   -2.6875    0.0000 C   0  0  0  0  0  0  0  0  0  0  0  0
    4.1292    2.1000    0.0000 C   0  0  0  0  0  0  0  0  0  0  0  0
    4.8792    2.0000    0.0000 C   0  0  0  0  0  0  0  0  0  0  0  0
    0.4042   -3.2542    0.0000 C   0  0  0  0  0  0  0  0  0  0  0  0
    1.3917   -4.1042    0.0000 C   0  0  0  0  0  0  0  0  0  0  0  0
    0.6542   -3.9667    0.0000 C   0  0  0  0  0  0  0  0  0  0  0  0
  2  3  1  0  0  0  0
  3  1  1  0  0  0  0
  4  1  1  0  0  0  0
  5  4  2  0  0  0  0
  6  1  1  0  0  0  0
  7  6  1  0  0  0  0
  8  7  1  0  0  0  0
  9  2  1  0  0  0  0
 10  5  1  0  0  0  0
 11  4  1  0  0  0  0
 12  3  2  0  0  0  0
 13  8  1  0  0  0  0
 14  7  2  0  0  0  0
 15  1  1  0  0  0  0
 16 11  2  0  0  0  0
 17 16  1  0  0  0  0
 18  9  1  0  0  0  0
 19 16  1  0  0  0  0
 20 13  1  0  0  0  0
 21  8  2  0  0  0  0
 22 13  2  0  0  0  0
 23 18  2  0  0  0  0
 24 18  1  0  0  0  0
 25 21  1  0  0  0  0
 26 25  2  0  0  0  0
 27 24  2  0  0  0  0
 28 23  1  0  0  0  0
 29 27  1  0  0  0  0
  5  2  1  0  0  0  0
 10 17  2  0  0  0  0
 22 26  1  0  0  0  0
 29 28  2  0  0  0  0
M  END
> <#>
1334

> <PLATE>
LAT017

> <ROW>
F

> <COL>
8

> <COORD>
F08

> <LATID>
LAT017F08

> <Supplier>
Chembridge

> <Suplier_CAT#>
7149909

> <Name>
Novel

> <Concentration_(mM)>
2.5

> <IC50_(µM)>
inactive

> <Yeast_Active?>
-

> <Pubchem_CID>
1298774

$$$$
