
  -ISIS-  08130814242D

 47 50  0  0  0  0  0  0  0  0999 V2000
   13.6750   -6.5042    0.0000 S   0  0  3  0  0  0  0  0  0  0  0  0
   11.9000   -6.1625    0.0000 C   0  0  0  0  0  0  0  0  0  0  0  0
   13.0792   -6.1625    0.0000 C   0  0  0  0  0  0  0  0  0  0  0  0
   12.4917   -6.5042    0.0000 C   0  0  0  0  0  0  0  0  0  0  0  0
   11.3042   -6.5042    0.0000 C   0  0  0  0  0  0  0  0  0  0  0  0
   11.9000   -5.4792    0.0000 C   0  0  0  0  0  0  0  0  0  0  0  0
   13.3292   -7.1000    0.0000 O   0  0  0  0  0  0  0  0  0  0  0  0
   14.0125   -5.9167    0.0000 O   0  0  0  0  0  0  0  0  0  0  0  0
   14.2625   -6.8542    0.0000 O   0  0  0  0  0  0  0  0  0  0  0  0
   11.3042   -7.1875    0.0000 O   0  0  0  0  0  0  0  0  0  0  0  0
   13.0792   -5.4792    0.0000 C   0  0  0  0  0  0  0  0  0  0  0  0
   12.4917   -5.1375    0.0000 C   0  0  0  0  0  0  0  0  0  0  0  0
   10.7167   -6.1625    0.0000 O   0  0  0  0  0  0  0  0  0  0  0  0
   11.3125   -5.1417    0.0000 O   0  0  0  0  0  0  0  0  0  0  0  0
    6.8792   -5.0000    0.0000 C   0  0  2  0  0  0  0  0  0  0  0  0
    5.4417   -4.9917    0.0000 C   0  0  0  0  0  0  0  0  0  0  0  0
    6.8667   -5.8292    0.0000 C   0  0  2  0  0  0  0  0  0  0  0  0
    8.3125   -5.0167    0.0000 C   0  0  0  0  0  0  0  0  0  0  0  0
    6.1542   -4.5917    0.0000 C   0  0  0  0  0  0  0  0  0  0  0  0
    7.6000   -4.5917    0.0000 C   0  0  0  0  0  0  0  0  0  0  0  0
    8.3042   -5.8500    0.0000 C   0  0  0  0  0  0  0  0  0  0  0  0
    5.4375   -5.8250    0.0000 C   0  0  1  0  0  0  0  0  0  0  0  0
    4.7250   -4.5875    0.0000 C   0  0  0  0  0  0  0  0  0  0  0  0
    4.7250   -6.2375    0.0000 C   0  0  0  0  0  0  0  0  0  0  0  0
    4.0167   -4.9917    0.0000 C   0  0  0  0  0  0  0  0  0  0  0  0
    4.0125   -5.8167    0.0000 C   0  0  0  0  0  0  0  0  0  0  0  0
    7.5792   -6.2542    0.0000 C   0  0  1  0  0  0  0  0  0  0  0  0
    6.1500   -6.2417    0.0000 C   0  0  2  0  0  0  0  0  0  0  0  0
    9.0292   -4.6125    0.0000 C   0  0  0  0  0  0  0  0  0  0  0  0
    3.2917   -4.5875    0.0000 C   0  0  0  0  0  0  0  0  0  0  0  0
    3.2917   -6.2375    0.0000 C   0  0  0  0  0  0  0  0  0  0  0  0
    7.5750   -7.0792    0.0000 N   0  0  3  0  0  0  0  0  0  0  0  0
    7.6042   -3.7667    0.0000 O   0  0  0  0  0  0  0  0  0  0  0  0
    4.7250   -3.7625    0.0000 O   0  0  0  0  0  0  0  0  0  0  0  0
    4.7167   -7.0625    0.0000 C   0  0  0  0  0  0  0  0  0  0  0  0
    6.8750   -4.1750    0.0000 O   0  0  0  0  0  0  0  0  0  0  0  0
    9.0417   -3.7875    0.0000 O   0  0  0  0  0  0  0  0  0  0  0  0
    6.1542   -3.7667    0.0000 O   0  0  0  0  0  0  0  0  0  0  0  0
    9.0167   -6.2667    0.0000 O   0  0  0  0  0  0  0  0  0  0  0  0
    2.5917   -4.9917    0.0000 C   0  0  0  0  0  0  0  0  0  0  0  0
    2.5917   -5.8167    0.0000 C   0  0  0  0  0  0  0  0  0  0  0  0
    6.1417   -7.0667    0.0000 O   0  0  0  0  0  0  0  0  0  0  0  0
    9.7417   -5.0292    0.0000 N   0  0  0  0  0  0  0  0  0  0  0  0
    3.2917   -7.0625    0.0000 Cl  0  0  0  0  0  0  0  0  0  0  0  0
    3.2917   -3.7625    0.0000 O   0  0  0  0  0  0  0  0  0  0  0  0
    8.2792   -7.5042    0.0000 C   0  0  0  0  0  0  0  0  0  0  0  0
    6.8542   -7.4917    0.0000 C   0  0  0  0  0  0  0  0  0  0  0  0
  2  4  1  0  0  0  0
  3  1  1  0  0  0  0
  4  3  2  0  0  0  0
  5  2  1  0  0  0  0
  6 12  1  0  0  0  0
  7  1  2  0  0  0  0
  8  1  2  0  0  0  0
  9  1  1  0  0  0  0
 10  5  2  0  0  0  0
 11  3  1  0  0  0  0
 12 11  2  0  0  0  0
 13  5  1  0  0  0  0
 14  6  1  0  0  0  0
  2  6  2  0  0  0  0
 17 28  1  6  0  0  0
 29 18  1  0  0  0  0
 30 25  2  0  0  0  0
 31 26  2  0  0  0  0
 27 32  1  1  0  0  0
 33 20  2  0  0  0  0
 34 23  2  0  0  0  0
 35 24  2  0  0  0  0
 15 36  1  1  0  0  0
 37 29  2  0  0  0  0
 38 19  1  0  0  0  0
 39 21  1  0  0  0  0
 40 30  1  0  0  0  0
 41 31  1  0  0  0  0
 28 42  1  1  0  0  0
 43 29  1  0  0  0  0
 44 31  1  0  0  0  0
 45 30  1  0  0  0  0
 46 32  1  0  0  0  0
 47 32  1  0  0  0  0
 21 27  1  0  0  0  0
 22 28  1  6  0  0  0
 24 26  1  0  0  0  0
 41 40  2  0  0  0  0
 16 19  2  0  0  0  0
 17 15  1  0  0  0  0
 18 20  1  0  0  0  0
 19 15  1  0  0  0  0
 20 15  1  0  0  0  0
 21 18  2  0  0  0  0
 22 16  1  0  0  0  0
 23 16  1  0  0  0  0
 24 22  1  0  0  0  0
 25 23  1  0  0  0  0
 26 25  1  0  0  0  0
 27 17  1  0  0  0  0
M  END
> <#>
131

> <PLATE>
LAT002

> <ROW>
C

> <COL>
8

> <COORD>
C08

> <LATID>
LAT002C08

> <Supplier>
Microsource

> <Suplier_CAT#>
01501118

> <Name>
Meclocycline Sulfosalicylate

> <Concentration_(mM)>
2.5

> <IC50_(µM)>
6.6

> <Yeast_Active?>
-

> <Pubchem_CID>
5359674

> <Description>
Antibacterial

$$$$
