
  -ISIS-  08130814242D

 17 20  0  0  0  0  0  0  0  0999 V2000
   -2.4056   -3.5333    0.0000 C   0  0  0  0  0  0  0  0  0  0  0  0
   -2.4068   -4.3607    0.0000 C   0  0  0  0  0  0  0  0  0  0  0  0
   -1.6919   -4.7735    0.0000 C   0  0  0  0  0  0  0  0  0  0  0  0
   -1.6937   -3.1205    0.0000 C   0  0  0  0  0  0  0  0  0  0  0  0
   -0.9784   -3.5297    0.0000 C   0  0  0  0  0  0  0  0  0  0  0  0
   -0.9750   -4.3581    0.0000 C   0  0  0  0  0  0  0  0  0  0  0  0
   -0.2597   -4.7672    0.0000 C   0  0  0  0  0  0  0  0  0  0  0  0
   -0.2665   -3.1102    0.0000 C   0  0  0  0  0  0  0  0  0  0  0  0
    0.4533   -3.5238    0.0000 C   0  0  0  0  0  0  0  0  0  0  0  0
    0.4557   -4.3482    0.0000 C   0  0  0  0  0  0  0  0  0  0  0  0
    1.1698   -4.7564    0.0000 C   0  0  0  0  0  0  0  0  0  0  0  0
    1.8818   -4.3415    0.0000 C   0  0  0  0  0  0  0  0  0  0  0  0
    1.8754   -3.5139    0.0000 C   0  0  0  0  0  0  0  0  0  0  0  0
    1.1608   -3.1094    0.0000 C   0  0  0  0  0  0  0  0  0  0  0  0
   -0.2555   -5.5922    0.0000 O   0  0  0  0  0  0  0  0  0  0  0  0
   -0.2711   -2.2852    0.0000 N   0  0  0  0  0  0  0  0  0  0  0  0
    1.1547   -2.2844    0.0000 N   0  0  0  0  0  0  0  0  0  0  0  0
  7 10  1  0  0  0  0
  9  8  1  0  0  0  0
  5  4  2  0  0  0  0
  4  1  1  0  0  0  0
  9 10  2  0  0  0  0
  5  6  1  0  0  0  0
 10 11  1  0  0  0  0
 11 12  2  0  0  0  0
  2  3  1  0  0  0  0
 12 13  1  0  0  0  0
  3  6  2  0  0  0  0
 13 14  2  0  0  0  0
 14  9  1  0  0  0  0
  1  2  2  0  0  0  0
  7 15  2  0  0  0  0
  5  8  1  0  0  0  0
  8 16  2  0  0  0  0
  6  7  1  0  0  0  0
 14 17  1  0  0  0  0
 16 17  1  0  0  0  0
M  END
> <#>
277

> <PLATE>
LAT004

> <ROW>
E

> <COL>
6

> <COORD>
E06

> <LATID>
LAT004E06

> <Supplier>
Sigma

> <Suplier_CAT#>
S 5567

> <Name>
SP600125

> <Concentration_(mM)>
2.5

> <IC50_(µM)>
>100

> <Yeast_Active?>
+

> <Pubchem_CID>
8515

> <Description>
Selective c-Jun N-terminal kinase (c-JNK) inhibitor.

$$$$
