
  -ISIS-  08130814242D

 14 13  0  0  0  0  0  0  0  0999 V2000
    3.1542   -2.9667    0.0000 C   0  0  0  0  0  0  0  0  0  0  0  0
    3.8042   -2.5917    0.0000 C   0  0  0  0  0  0  0  0  0  0  0  0
    2.5000   -2.5917    0.0000 C   0  0  0  0  0  0  0  0  0  0  0  0
    4.4542   -2.9667    0.0000 O   0  5  0  0  0  0  0  0  0  0  0  0
    3.8042   -1.8417    0.0000 O   0  0  0  0  0  0  0  0  0  0  0  0
    2.5000   -1.8417    0.0000 S   0  0  0  0  0  0  0  0  0  0  0  0
    3.1500   -1.4625    0.0000 Hg  0  0  0  0  0  0  0  0  0  0  0  0
    3.1542   -3.7250    0.0000 C   0  0  0  0  0  0  0  0  0  0  0  0
    1.8542   -2.9667    0.0000 C   0  0  0  0  0  0  0  0  0  0  0  0
    3.1500   -0.7125    0.0000 C   0  0  0  0  0  0  0  0  0  0  0  0
    2.5000   -4.1000    0.0000 C   0  0  0  0  0  0  0  0  0  0  0  0
    3.7917   -0.3375    0.0000 C   0  0  0  0  0  0  0  0  0  0  0  0
    1.8542   -3.7250    0.0000 C   0  0  0  0  0  0  0  0  0  0  0  0
    5.3917   -2.9917    0.0000 Na  0  3  0  0  0  0  0  0  0  0  0  0
  2  1  1  0  0  0  0
  3  1  1  0  0  0  0
  4  2  1  0  0  0  0
  5  2  2  0  0  0  0
  6  3  1  0  0  0  0
  7  6  1  0  0  0  0
  8  1  2  0  0  0  0
  9  3  2  0  0  0  0
 10  7  1  0  0  0  0
 11  8  1  0  0  0  0
 12 10  1  0  0  0  0
 13 11  2  0  0  0  0
  9 13  1  0  0  0  0
M  CHG  2   4  -1  14   1
M  END
> <#>
155

> <PLATE>
LAT002

> <ROW>
C

> <COL>
11

> <COORD>
C11

> <LATID>
LAT002C11

> <Supplier>
Microsource

> <Suplier_CAT#>
01500572

> <Name>
Thimerosal

> <Concentration_(mM)>
2.5

> <IC50_(µM)>
1.5

> <Yeast_Active?>
+

> <Pubchem_CID>
5908

> <Description>
Antiinfective, Preservative

$$$$
