
  -ISIS-  08130814242D

 23 25  0  0  0  0  0  0  0  0999 V2000
   -0.0208   -0.2500    0.0000 C   0  0  0  0  0  0  0  0  0  0  0  0
   -0.0208    0.8000    0.0000 C   0  0  0  0  0  0  0  0  0  0  0  0
   -0.9333   -0.7667    0.0000 C   0  0  0  0  0  0  0  0  0  0  0  0
   -0.9333    1.3125    0.0000 C   0  0  0  0  0  0  0  0  0  0  0  0
    0.8875   -0.8000    0.0000 N   0  0  3  0  0  0  0  0  0  0  0  0
   -1.8333   -0.2500    0.0000 C   0  0  0  0  0  0  0  0  0  0  0  0
   -1.8333    0.8000    0.0000 C   0  0  0  0  0  0  0  0  0  0  0  0
    0.8875   -1.8375    0.0000 C   0  0  0  0  0  0  0  0  0  0  0  0
   -0.9333   -1.8042    0.0000 O   0  0  0  0  0  0  0  0  0  0  0  0
   -0.9333    2.3500    0.0000 O   0  0  0  0  0  0  0  0  0  0  0  0
    0.8875    1.3458    0.0000 Cl  0  0  0  0  0  0  0  0  0  0  0  0
   -0.0208   -2.3500    0.0000 O   0  0  0  0  0  0  0  0  0  0  0  0
    1.8000   -0.2792    0.0000 C   0  0  3  0  0  0  0  0  0  0  0  0
   -2.7333   -0.7667    0.0000 C   0  0  0  0  0  0  0  0  0  0  0  0
   -2.7333    1.3125    0.0000 C   0  0  0  0  0  0  0  0  0  0  0  0
    1.7875   -2.3667    0.0000 C   0  0  0  0  0  0  0  0  0  0  0  0
    2.7000   -0.8042    0.0000 C   0  0  0  0  0  0  0  0  0  0  0  0
    1.8000    0.7500    0.0000 C   0  0  0  0  0  0  0  0  0  0  0  0
   -3.6333   -0.2500    0.0000 C   0  0  0  0  0  0  0  0  0  0  0  0
   -3.6333    0.8000    0.0000 C   0  0  0  0  0  0  0  0  0  0  0  0
    2.7000    1.2833    0.0000 C   0  0  0  0  0  0  0  0  0  0  0  0
    3.6000   -0.3000    0.0000 C   0  0  0  0  0  0  0  0  0  0  0  0
    3.6042    0.7708    0.0000 C   0  0  0  0  0  0  0  0  0  0  0  0
  2  1  2  0  0  0  0
  3  1  1  0  0  0  0
  4  2  1  0  0  0  0
  5  1  1  0  0  0  0
  6  3  1  0  0  0  0
  7  6  2  0  0  0  0
  8  5  1  0  0  0  0
  9  3  2  0  0  0  0
 10  4  2  0  0  0  0
 11  2  1  0  0  0  0
 12  8  2  0  0  0  0
 13  5  1  0  0  0  0
 14  6  1  0  0  0  0
 15  7  1  0  0  0  0
 16  8  1  0  0  0  0
 17 13  1  0  0  0  0
 18 13  1  0  0  0  0
 19 14  2  0  0  0  0
 20 19  1  0  0  0  0
 21 18  1  0  0  0  0
 22 17  1  0  0  0  0
 23 21  1  0  0  0  0
  7  4  1  0  0  0  0
 22 23  1  0  0  0  0
 15 20  2  0  0  0  0
M  END
> <#>
584

> <PLATE>
LAT008

> <ROW>
H

> <COL>
4

> <COORD>
H04

> <LATID>
LAT008H04

> <Supplier>
Chembridge

> <Suplier_CAT#>
5468139

> <Name>
Novel

> <Sec_Name>
132_G10

> <Concentration_(mM)>
2.5

> <IC50_(µM)>
22

> <Yeast_Active?>
-

> <Pubchem_CID>
NULL

$$$$
