
  -ISIS-  08130814242D

 18 19  0  0  0  0  0  0  0  0999 V2000
    2.2875    1.3208    0.0000 N   0  3  0  0  0  0  0  0  0  0  0  0
    1.6500    0.9458    0.0000 C   0  0  0  0  0  0  0  0  0  0  0  0
    1.0042    1.3208    0.0000 C   0  0  0  0  0  0  0  0  0  0  0  0
    0.3667    0.9458    0.0000 C   0  0  0  0  0  0  0  0  0  0  0  0
    1.6500    0.2000    0.0000 C   0  0  0  0  0  0  0  0  0  0  0  0
    2.9292    0.9458    0.0000 O   0  5  0  0  0  0  0  0  0  0  0  0
    2.2875    2.0625    0.0000 O   0  0  0  0  0  0  0  0  0  0  0  0
    1.0042   -0.1792    0.0000 C   0  0  0  0  0  0  0  0  0  0  0  0
    0.3667    0.2000    0.0000 C   0  0  0  0  0  0  0  0  0  0  0  0
   -0.2958    1.3208    0.0000 O   0  0  0  0  0  0  0  0  0  0  0  0
   -0.9333    0.9458    0.0000 C   0  0  0  0  0  0  0  0  0  0  0  0
   -0.9333    0.2000    0.0000 C   0  0  0  0  0  0  0  0  0  0  0  0
    1.0042   -0.9375    0.0000 N   0  0  0  0  0  0  0  0  0  0  0  0
   -1.5708   -0.1792    0.0000 C   0  0  0  0  0  0  0  0  0  0  0  0
   -2.2125    0.9458    0.0000 C   0  0  0  0  0  0  0  0  0  0  0  0
   -1.5708    1.3208    0.0000 C   0  0  0  0  0  0  0  0  0  0  0  0
   -2.2125    0.2000    0.0000 C   0  0  0  0  0  0  0  0  0  0  0  0
   -1.5708   -0.9167    0.0000 C   0  0  0  0  0  0  0  0  0  0  0  0
  2  1  1  0  0  0  0
  3  2  2  0  0  0  0
  4  3  1  0  0  0  0
  5  2  1  0  0  0  0
  6  1  1  0  0  0  0
  7  1  2  0  0  0  0
  8  5  2  0  0  0  0
  9  8  1  0  0  0  0
 10  4  1  0  0  0  0
 11 10  1  0  0  0  0
 12 11  2  0  0  0  0
 13  8  1  0  0  0  0
 14 12  1  0  0  0  0
 15 16  2  0  0  0  0
 16 11  1  0  0  0  0
 17 15  1  0  0  0  0
 18 14  1  0  0  0  0
  9  4  2  0  0  0  0
 14 17  2  0  0  0  0
M  CHG  2   1   1   6  -1
M  END
> <#>
2021

> <PLATE>
LAT026

> <ROW>
E

> <COL>
4

> <COORD>
E04

> <LATID>
LAT026E04

> <Supplier>
Chembridge

> <Suplier_CAT#>
5667778

> <Sec_Name>
210_G04

> <Concentration_(mM)>
2.5

> <IC50_(µM)>
75

> <Yeast_Active?>
-

> <Pubchem_CID>
867747

$$$$
