
  -ISIS-  08130814242D

  5  3  0  0  0  0  0  0  0  0999 V2000
    3.1219    1.4096    0.0000 Ag  0  3  0  0  0  0  0  0  0  0  0  0
    2.4969    0.3271    0.0000 N   0  3  0  0  0  0  0  0  0  0  0  0
    1.8719   -0.7554    0.0000 O   0  5  0  0  0  0  0  0  0  0  0  0
    1.8719    1.4096    0.0000 O   0  0  0  0  0  0  0  0  0  0  0  0
    3.7469    0.3271    0.0000 O   0  5  0  0  0  0  0  0  0  0  0  0
  2  3  1  0  0  0  0
  2  4  2  0  0  0  0
  2  5  1  0  0  0  0
M  CHG  4   1   1   2   1   3  -1   5  -1
M  END
> <#>
436

> <PLATE>
LAT006

> <ROW>
D

> <COL>
6

> <COORD>
D06

> <LATID>
LAT006D06

> <Supplier>
BDH

> <Suplier_CAT#>
B10233

> <Name>
Silver Nitrate

> <Concentration_(mM)>
2.5

> <IC50_(µM)>
inactive

> <Yeast_Active?>
+

> <Pubchem_CID>
24470

$$$$
