
  -ISIS-  08130814242D

 29 32  0  0  0  0  0  0  0  0999 V2000
    1.4042   -1.2167    0.0000 N   0  0  3  0  0  0  0  0  0  0  0  0
    2.0667   -1.0292    0.0000 C   0  0  0  0  0  0  0  0  0  0  0  0
    2.5792   -1.4667    0.0000 C   0  0  0  0  0  0  0  0  0  0  0  0
    2.3167   -0.4000    0.0000 C   0  0  0  0  0  0  0  0  0  0  0  0
    1.2542   -1.8375    0.0000 C   0  0  0  0  0  0  0  0  0  0  0  0
    3.0167   -0.4375    0.0000 N   0  0  3  0  0  0  0  0  0  0  0  0
    3.1875   -1.1000    0.0000 N   0  0  3  0  0  0  0  0  0  0  0  0
    0.8875   -0.7542    0.0000 C   0  0  0  0  0  0  0  0  0  0  0  0
    0.3792   -1.1792    0.0000 C   0  0  0  0  0  0  0  0  0  0  0  0
    0.5500   -1.8375    0.0000 S   0  0  0  0  0  0  0  0  0  0  0  0
   -0.2625   -0.9000    0.0000 C   0  0  0  0  0  0  0  0  0  0  0  0
    1.6542   -2.4500    0.0000 S   0  0  0  0  0  0  0  0  0  0  0  0
    2.4792   -2.1500    0.0000 O   0  0  0  0  0  0  0  0  0  0  0  0
   -0.8125   -1.3000    0.0000 C   0  0  0  0  0  0  0  0  0  0  0  0
    3.8292   -1.3167    0.0000 C   0  0  0  0  0  0  0  0  0  0  0  0
    0.8792   -0.0667    0.0000 O   0  0  0  0  0  0  0  0  0  0  0  0
   -0.7500   -1.9875    0.0000 C   0  0  0  0  0  0  0  0  0  0  0  0
    3.4542    0.0833    0.0000 C   0  0  0  0  0  0  0  0  0  0  0  0
    1.9292    0.1625    0.0000 C   0  0  0  0  0  0  0  0  0  0  0  0
   -0.1458   -2.2667    0.0000 F   0  0  0  0  0  0  0  0  0  0  0  0
   -1.4333   -1.0167    0.0000 C   0  0  0  0  0  0  0  0  0  0  0  0
    3.9500   -1.9875    0.0000 C   0  0  0  0  0  0  0  0  0  0  0  0
    4.3542   -0.8792    0.0000 C   0  0  0  0  0  0  0  0  0  0  0  0
   -1.3000   -2.4000    0.0000 C   0  0  0  0  0  0  0  0  0  0  0  0
   -2.0000   -1.4042    0.0000 C   0  0  0  0  0  0  0  0  0  0  0  0
    5.0167   -1.1000    0.0000 C   0  0  0  0  0  0  0  0  0  0  0  0
    4.5875   -2.2292    0.0000 C   0  0  0  0  0  0  0  0  0  0  0  0
   -1.9333   -2.1042    0.0000 C   0  0  0  0  0  0  0  0  0  0  0  0
    5.1292   -1.7792    0.0000 C   0  0  0  0  0  0  0  0  0  0  0  0
  2  1  1  0  0  0  0
  3  2  1  0  0  0  0
  4  2  2  0  0  0  0
  5  1  1  0  0  0  0
  6  4  1  0  0  0  0
  7  3  1  0  0  0  0
  8  1  1  0  0  0  0
  9  8  1  0  0  0  0
 10  5  1  0  0  0  0
 11  9  2  0  0  0  0
 12  5  2  0  0  0  0
 13  3  2  0  0  0  0
 14 11  1  0  0  0  0
 15  7  1  0  0  0  0
 16  8  2  0  0  0  0
 17 14  2  0  0  0  0
 18  6  1  0  0  0  0
 19  4  1  0  0  0  0
 20 17  1  0  0  0  0
 21 14  1  0  0  0  0
 22 15  1  0  0  0  0
 23 15  2  0  0  0  0
 24 17  1  0  0  0  0
 25 21  2  0  0  0  0
 26 23  1  0  0  0  0
 27 22  2  0  0  0  0
 28 25  1  0  0  0  0
 29 26  2  0  0  0  0
  9 10  1  0  0  0  0
  6  7  1  0  0  0  0
 24 28  2  0  0  0  0
 27 29  1  0  0  0  0
M  END
> <#>
1778

> <PLATE>
LAT023

> <ROW>
B

> <COL>
4

> <COORD>
B04

> <LATID>
LAT023B04

> <Supplier>
Chembridge

> <Suplier_CAT#>
5540473

> <Name>
Novel

> <Sec_Name>
159_A04

> <Concentration_(mM)>
2.5

> <IC50_(µM)>
5

> <Yeast_Active?>
-

> <Pubchem_CID>
1368680

$$$$
