
  -ISIS-  08130814242D

 16 17  0  0  0  0  0  0  0  0999 V2000
    2.2042   -3.0292    0.0000 C   0  0  0  0  0  0  0  0  0  0  0  0
    1.5125   -2.7167    0.0000 N   0  0  0  0  0  0  0  0  0  0  0  0
    5.6167   -2.7167    0.0000 C   0  0  0  0  0  0  0  0  0  0  0  0
    5.1292   -2.1542    0.0000 N   0  0  3  0  0  0  0  0  0  0  0  0
    2.8500   -2.6542    0.0000 O   0  0  0  0  0  0  0  0  0  0  0  0
    4.3917   -2.3000    0.0000 N   0  0  0  0  0  0  0  0  0  0  0  0
    2.3625   -3.7667    0.0000 C   0  0  0  0  0  0  0  0  0  0  0  0
    3.4042   -3.1542    0.0000 C   0  0  0  0  0  0  0  0  0  0  0  0
    4.1500   -3.0042    0.0000 C   0  0  0  0  0  0  0  0  0  0  0  0
    3.1042   -3.8417    0.0000 C   0  0  0  0  0  0  0  0  0  0  0  0
    6.3042   -2.4292    0.0000 O   0  0  0  0  0  0  0  0  0  0  0  0
    0.9042   -3.1625    0.0000 O   0  0  0  0  0  0  0  0  0  0  0  0
    1.4292   -1.9667    0.0000 O   0  0  0  0  0  0  0  0  0  0  0  0
    5.4542   -3.4542    0.0000 O   0  0  0  0  0  0  0  0  0  0  0  0
    5.5167   -1.5125    0.0000 C   0  0  0  0  0  0  0  0  0  0  0  0
    6.2500   -1.6875    0.0000 C   0  0  0  0  0  0  0  0  0  0  0  0
  2  1  1  0  0  0  0
  3  4  1  0  0  0  0
  4  6  1  0  0  0  0
  5  1  1  0  0  0  0
  6  9  2  0  0  0  0
  7  1  2  0  0  0  0
  8  5  1  0  0  0  0
  9  8  1  0  0  0  0
 10  7  1  0  0  0  0
 11  3  1  0  0  0  0
 12  2  2  0  0  0  0
 13  2  2  0  0  0  0
 14  3  2  0  0  0  0
 15  4  1  0  0  0  0
 16 15  1  0  0  0  0
 10  8  2  0  0  0  0
 11 16  1  0  0  0  0
M  END
> <#>
57

> <PLATE>
LAT001

> <ROW>
A

> <COL>
9

> <COORD>
A09

> <LATID>
LAT001A09

> <Supplier>
Microsource

> <Suplier_CAT#>
01500309

> <Name>
Furazolidone

> <Concentration_(mM)>
2.5

> <IC50_(µM)>
56

> <Yeast_Active?>
-

> <Pubchem_CID>
5353636

> <Description>
Antimicrobial

$$$$
