
  -ISIS-  08130814242D

 20 22  0  0  0  0  0  0  0  0999 V2000
   -3.1625   -0.2542    0.0000 C   0  0  0  0  0  0  0  0  0  0  0  0
   -3.1625    0.3708    0.0000 C   0  0  0  0  0  0  0  0  0  0  0  0
   -3.7125   -0.5792    0.0000 C   0  0  3  0  0  0  0  0  0  0  0  0
   -3.7125   -1.2000    0.0000 C   0  0  0  0  0  0  0  0  0  0  0  0
   -3.7125    0.6833    0.0000 C   0  0  0  0  0  0  0  0  0  0  0  0
   -3.1708   -1.5000    0.0000 C   0  0  0  0  0  0  0  0  0  0  0  0
   -3.1625   -2.1292    0.0000 C   0  0  0  0  0  0  0  0  0  0  0  0
   -2.6000   -0.5667    0.0000 C   0  0  0  0  0  0  0  0  0  0  0  0
   -4.2708   -0.2542    0.0000 C   0  0  0  0  0  0  0  0  0  0  0  0
   -2.6125    0.6833    0.0000 C   0  0  0  0  0  0  0  0  0  0  0  0
   -3.7000   -2.4500    0.0000 C   0  0  0  0  0  0  0  0  0  0  0  0
   -4.2708    0.3708    0.0000 C   0  0  0  0  0  0  0  0  0  0  0  0
   -4.2458   -1.5042    0.0000 C   0  0  0  0  0  0  0  0  0  0  0  0
   -3.6833    1.1958    0.0000 O   0  0  0  0  0  0  0  0  0  0  0  0
   -4.2333   -2.1375    0.0000 C   0  0  0  0  0  0  0  0  0  0  0  0
   -2.0625    0.3708    0.0000 C   0  0  0  0  0  0  0  0  0  0  0  0
   -2.7125   -2.4167    0.0000 Cl  0  0  0  0  0  0  0  0  0  0  0  0
   -2.0625   -0.2542    0.0000 C   0  0  0  0  0  0  0  0  0  0  0  0
   -3.7000   -2.8500    0.0000 Cl  0  0  0  0  0  0  0  0  0  0  0  0
   -1.5208    0.6833    0.0000 O   0  0  0  0  0  0  0  0  0  0  0  0
  2  1  1  0  0  0  0
  3  1  1  0  0  0  0
  4  3  1  0  0  0  0
  5  2  1  0  0  0  0
  6  4  2  0  0  0  0
  7  6  1  0  0  0  0
  8  1  2  0  0  0  0
  9  3  1  0  0  0  0
 10  2  2  0  0  0  0
 11 15  1  0  0  0  0
 12  9  1  0  0  0  0
 13  4  1  0  0  0  0
 14  5  2  0  0  0  0
 15 13  2  0  0  0  0
 16 18  2  0  0  0  0
 17  7  1  0  0  0  0
 18  8  1  0  0  0  0
 19 11  1  0  0  0  0
 20 16  1  0  0  0  0
 10 16  1  0  0  0  0
  5 12  1  0  0  0  0
  7 11  2  0  0  0  0
M  END
> <#>
1310

> <PLATE>
LAT017

> <ROW>
F

> <COL>
5

> <COORD>
F05

> <LATID>
LAT017F05

> <Supplier>
Chembridge

> <Suplier_CAT#>
6787548

> <Name>
Novel

> <Concentration_(mM)>
2.5

> <IC50_(µM)>
56

> <Yeast_Active?>
+

> <Pubchem_CID>
1121951

$$$$
