
  -ISIS-  08130814242D

 15 17  0  0  0  0  0  0  0  0999 V2000
    3.0792   -1.5167    0.0000 C   0  0  0  0  0  0  0  0  0  0  0  0
    3.7750   -1.5167    0.0000 N   0  0  0  0  0  0  0  0  0  0  0  0
    2.8625   -2.1875    0.0000 N   0  0  3  0  0  0  0  0  0  0  0  0
    3.9917   -2.1875    0.0000 C   0  0  0  0  0  0  0  0  0  0  0  0
    3.4250   -2.5917    0.0000 C   0  0  0  0  0  0  0  0  0  0  0  0
    2.5042   -1.1167    0.0000 S   0  0  0  0  0  0  0  0  0  0  0  0
    4.6542   -2.4000    0.0000 C   0  0  0  0  0  0  0  0  0  0  0  0
    2.1667   -2.1875    0.0000 C   0  0  0  0  0  0  0  0  0  0  0  0
    1.9542   -1.5167    0.0000 C   0  0  0  0  0  0  0  0  0  0  0  0
    5.1667   -1.9375    0.0000 C   0  0  0  0  0  0  0  0  0  0  0  0
    5.8292   -2.1500    0.0000 C   0  0  0  0  0  0  0  0  0  0  0  0
    6.3500   -1.6792    0.0000 Br  0  0  0  0  0  0  0  0  0  0  0  0
    4.7917   -3.0792    0.0000 C   0  0  0  0  0  0  0  0  0  0  0  0
    5.4625   -3.3000    0.0000 C   0  0  0  0  0  0  0  0  0  0  0  0
    5.9750   -2.8292    0.0000 C   0  0  0  0  0  0  0  0  0  0  0  0
  2  1  2  0  0  0  0
  3  1  1  0  0  0  0
  4  2  1  0  0  0  0
  5  3  1  0  0  0  0
  6  1  1  0  0  0  0
  7  4  1  0  0  0  0
  8  3  1  0  0  0  0
  9  6  1  0  0  0  0
 10  7  2  0  0  0  0
 11 10  1  0  0  0  0
 12 11  1  0  0  0  0
 13  7  1  0  0  0  0
 14 13  2  0  0  0  0
 15 14  1  0  0  0  0
  9  8  2  0  0  0  0
  5  4  2  0  0  0  0
 15 11  2  0  0  0  0
M  END
> <#>
918

> <PLATE>
LAT012

> <ROW>
F

> <COL>
6

> <COORD>
F06

> <LATID>
LAT012F06

> <Supplier>
Chembridge

> <Suplier_CAT#>
5691482

> <Name>
Novel

> <Sec_Name>
221_H02

> <Concentration_(mM)>
2.5

> <IC50_(µM)>
65

> <Yeast_Active?>
-

> <Pubchem_CID>
868200

$$$$
