
  -ISIS-  08130814242D

 15 16  0  0  0  0  0  0  0  0999 V2000
    7.0042   -3.4792    0.0000 N   0  0  0  0  0  0  0  0  0  0  0  0
    6.7792   -4.1875    0.0000 C   0  0  0  0  0  0  0  0  0  0  0  0
    5.8000   -3.4792    0.0000 C   0  0  0  0  0  0  0  0  0  0  0  0
    6.4000   -3.0292    0.0000 C   0  0  0  0  0  0  0  0  0  0  0  0
    6.0167   -4.1875    0.0000 S   0  0  0  0  0  0  0  0  0  0  0  0
    5.0875   -3.2375    0.0000 C   0  0  0  0  0  0  0  0  0  0  0  0
    4.5292   -3.7375    0.0000 C   0  0  0  0  0  0  0  0  0  0  0  0
    7.2167   -4.8000    0.0000 S   0  0  0  0  0  0  0  0  0  0  0  0
    6.4042   -2.2792    0.0000 O   0  0  0  0  0  0  0  0  0  0  0  0
    3.8167   -3.5042    0.0000 C   0  0  0  0  0  0  0  0  0  0  0  0
    3.6542   -2.7667    0.0000 Br  0  0  0  0  0  0  0  0  0  0  0  0
    4.6792   -4.4792    0.0000 C   0  0  0  0  0  0  0  0  0  0  0  0
    3.2542   -4.0042    0.0000 C   0  0  0  0  0  0  0  0  0  0  0  0
    4.1167   -4.9792    0.0000 C   0  0  0  0  0  0  0  0  0  0  0  0
    3.4042   -4.7375    0.0000 C   0  0  0  0  0  0  0  0  0  0  0  0
  2  1  1  0  0  0  0
  3  4  1  0  0  0  0
  4  1  1  0  0  0  0
  5  2  1  0  0  0  0
  6  3  2  0  0  0  0
  7  6  1  0  0  0  0
  8  2  2  0  0  0  0
  9  4  2  0  0  0  0
 10  7  1  0  0  0  0
 11 10  1  0  0  0  0
 12  7  2  0  0  0  0
 13 10  2  0  0  0  0
 14 12  1  0  0  0  0
 15 14  2  0  0  0  0
  3  5  1  0  0  0  0
 13 15  1  0  0  0  0
M  END
> <#>
986

> <PLATE>
LAT013

> <ROW>
B

> <COL>
5

> <COORD>
B05

> <LATID>
LAT013B05

> <Supplier>
Chembridge

> <Suplier_CAT#>
5721479

> <Name>
Novel

> <Sec_Name>
229_F08

> <Concentration_(mM)>
2.5

> <IC50_(µM)>
27

> <Yeast_Active?>
+

> <Pubchem_CID>
1361302

$$$$
