
  -ISIS-  08130814242D

 21 22  0  0  0  0  0  0  0  0999 V2000
    1.7000   -3.6667    0.0000 C   0  0  0  0  0  0  0  0  0  0  0  0
    2.3667   -4.1500    0.0000 O   0  0  0  0  0  0  0  0  0  0  0  0
    6.0000   -3.8792    0.0000 C   0  0  0  0  0  0  0  0  0  0  0  0
    3.0375   -3.6667    0.0000 C   0  0  0  0  0  0  0  0  0  0  0  0
    4.4375   -3.3667    0.0000 N   0  0  0  0  0  0  0  0  0  0  0  0
    1.9542   -2.8792    0.0000 C   0  0  0  0  0  0  0  0  0  0  0  0
    2.7875   -2.8792    0.0000 C   0  0  0  0  0  0  0  0  0  0  0  0
    9.4042   -2.7542    0.0000 C   0  0  0  0  0  0  0  0  0  0  0  0
    3.8167   -3.9167    0.0000 C   0  0  0  0  0  0  0  0  0  0  0  0
    5.2167   -3.6167    0.0000 N   0  0  0  0  0  0  0  0  0  0  0  0
    9.2375   -1.9500    0.0000 C   0  0  0  0  0  0  0  0  0  0  0  0
    8.8000   -3.3042    0.0000 C   0  0  0  0  0  0  0  0  0  0  0  0
    6.1667   -4.6875    0.0000 O   0  0  0  0  0  0  0  0  0  0  0  0
    8.4542   -1.6875    0.0000 C   0  0  0  0  0  0  0  0  0  0  0  0
    6.6042   -3.3292    0.0000 C   0  0  0  0  0  0  0  0  0  0  0  0
    0.9167   -3.9167    0.0000 I   0  0  0  0  0  0  0  0  0  0  0  0
    8.0042   -3.0500    0.0000 C   0  0  0  0  0  0  0  0  0  0  0  0
    7.3875   -3.6000    0.0000 O   0  0  0  0  0  0  0  0  0  0  0  0
    7.8375   -2.2375    0.0000 C   0  0  0  0  0  0  0  0  0  0  0  0
   10.1875   -3.0042    0.0000 C   0  0  0  0  0  0  0  0  0  0  0  0
    9.8542   -1.4000    0.0000 C   0  0  0  0  0  0  0  0  0  0  0  0
  2  1  1  0  0  0  0
  3 10  1  0  0  0  0
  4  2  1  0  0  0  0
  5  9  2  0  0  0  0
  6  1  2  0  0  0  0
  7  6  1  0  0  0  0
  8 12  2  0  0  0  0
  9  4  1  0  0  0  0
 10  5  1  0  0  0  0
 11 14  2  0  0  0  0
 12 17  1  0  0  0  0
 13  3  2  0  0  0  0
 14 19  1  0  0  0  0
 15  3  1  0  0  0  0
 16  1  1  0  0  0  0
 17 18  1  0  0  0  0
 18 15  1  0  0  0  0
 19 17  2  0  0  0  0
 20  8  1  0  0  0  0
 21 11  1  0  0  0  0
  4  7  2  0  0  0  0
  8 11  1  0  0  0  0
M  END
> <#>
1939

> <PLATE>
LAT025

> <ROW>
C

> <COL>
4

> <COORD>
C04

> <LATID>
LAT025C04

> <Supplier>
Chembridge

> <Suplier_CAT#>
5747589

> <Name>
Novel

> <Sec_Name>
238_G06

> <Concentration_(mM)>
2.5

> <IC50_(µM)>
1.2

> <Yeast_Active?>
-

> <Pubchem_CID>
1364039

$$$$
