
  -ISIS-  08130814242D

 18 20  0  0  0  0  0  0  0  0999 V2000
   -1.6125    2.4583    0.0000 C   0  0  0  0  0  0  0  0  0  0  0  0
   -2.1125    1.7333    0.0000 N   0  0  0  0  0  0  0  0  0  0  0  0
   -2.1125    3.1500    0.0000 N   0  0  0  0  0  0  0  0  0  0  0  0
   -2.9500    2.0208    0.0000 C   0  0  0  0  0  0  0  0  0  0  0  0
   -2.9500    2.8958    0.0000 C   0  0  0  0  0  0  0  0  0  0  0  0
   -0.7333    2.4583    0.0000 S   0  0  0  0  0  0  0  0  0  0  0  0
   -0.2958    1.6958    0.0000 C   0  0  0  0  0  0  0  0  0  0  0  0
    1.0292    2.4583    0.0000 C   0  0  0  0  0  0  0  0  0  0  0  0
    1.9042    2.4583    0.0000 C   0  0  0  0  0  0  0  0  0  0  0  0
    0.5875    1.6958    0.0000 C   0  0  0  0  0  0  0  0  0  0  0  0
    2.3667    3.2125    0.0000 Br  0  0  0  0  0  0  0  0  0  0  0  0
   -3.7125    1.5708    0.0000 C   0  0  0  0  0  0  0  0  0  0  0  0
   -3.7125    3.3333    0.0000 C   0  0  0  0  0  0  0  0  0  0  0  0
    1.9042    0.9333    0.0000 C   0  0  0  0  0  0  0  0  0  0  0  0
    2.3500    1.6958    0.0000 C   0  0  0  0  0  0  0  0  0  0  0  0
    1.0292    0.9333    0.0000 C   0  0  0  0  0  0  0  0  0  0  0  0
   -4.4708    2.0208    0.0000 C   0  0  0  0  0  0  0  0  0  0  0  0
   -4.4708    2.8958    0.0000 C   0  0  0  0  0  0  0  0  0  0  0  0
  2  1  2  0  0  0  0
  3  1  1  0  0  0  0
  4  2  1  0  0  0  0
  5  3  1  0  0  0  0
  6  1  1  0  0  0  0
  7  6  1  0  0  0  0
  8 10  2  0  0  0  0
  9  8  1  0  0  0  0
 10  7  1  0  0  0  0
 11  9  1  0  0  0  0
 12  4  1  0  0  0  0
 13  5  1  0  0  0  0
 14 16  2  0  0  0  0
 15 14  1  0  0  0  0
 16 10  1  0  0  0  0
 17 12  2  0  0  0  0
 18 13  2  0  0  0  0
  5  4  2  0  0  0  0
 17 18  1  0  0  0  0
 15  9  2  0  0  0  0
M  END
> <#>
795

> <PLATE>
LAT010

> <ROW>
C

> <COL>
11

> <COORD>
C11

> <LATID>
LAT010C11

> <Supplier>
Chembridge

> <Suplier_CAT#>
5571619

> <Name>
Novel

> <Sec_Name>
176_B05

> <Concentration_(mM)>
2.5

> <IC50_(µM)>
>100

> <Yeast_Active?>
-

> <Pubchem_CID>
NULL

$$$$
