
  -ISIS-  08130814242D

 19 20  0  0  0  0  0  0  0  0999 V2000
    1.9292    5.0917    0.0000 C   0  0  0  0  0  0  0  0  0  0  0  0
    3.9167    8.5792    0.0000 S   0  0  0  0  0  0  0  0  0  0  0  0
   -2.0333    5.0917    0.0000 N   0  0  0  0  0  0  0  0  0  0  0  0
    4.0167    1.7000    0.0000 N   0  0  0  0  0  0  0  0  0  0  0  0
  -10.0792   11.8750    0.0000 N   0  0  0  0  0  0  0  0  0  0  0  0
   -8.0000    8.4750    0.0000 C   0  0  0  0  0  0  0  0  0  0  0  0
   -4.0375    8.5000    0.0000 C   0  0  0  0  0  0  0  0  0  0  0  0
    7.9750    1.7958    0.0000 C   0  0  0  0  0  0  0  0  0  0  0  0
   13.9417   -8.4417    0.0000 C   0  0  0  0  0  0  0  0  0  0  0  0
   10.0000   -1.6292    0.0000 C   0  0  0  0  0  0  0  0  0  0  0  0
   15.9667  -11.8750    0.0000 Cl  0  0  0  0  0  0  0  0  0  0  0  0
   10.0542   -8.4417    0.0000 C   0  0  0  0  0  0  0  0  0  0  0  0
   16.0000   -4.9625    0.0000 C   0  0  0  0  0  0  0  0  0  0  0  0
    8.0417   -4.9917    0.0000 C   0  0  0  0  0  0  0  0  0  0  0  0
   14.0125   -1.6292    0.0000 C   0  0  0  0  0  0  0  0  0  0  0  0
  -14.0417   11.8000    0.0000 C   0  0  0  0  0  0  0  0  0  0  0  0
   -9.9542    5.0417    0.0000 C   0  0  0  0  0  0  0  0  0  0  0  0
  -16.0000    8.3500    0.0000 C   0  0  0  0  0  0  0  0  0  0  0  0
  -13.9167    4.9667    0.0000 C   0  0  0  0  0  0  0  0  0  0  0  0
  2  1  2  0  0  0  0
  3  1  1  0  0  0  0
  4  1  1  0  0  0  0
  5  6  2  0  0  0  0
  6  7  1  0  0  0  0
  7  3  1  0  0  0  0
  8  4  1  0  0  0  0
  9 13  2  0  0  0  0
 10  8  1  0  0  0  0
 11  9  1  0  0  0  0
 12 14  2  0  0  0  0
 13 15  1  0  0  0  0
 14 10  1  0  0  0  0
 15 10  2  0  0  0  0
 16  5  1  0  0  0  0
 17  6  1  0  0  0  0
 18 19  1  0  0  0  0
 19 17  2  0  0  0  0
 12  9  1  0  0  0  0
 18 16  2  0  0  0  0
M  END
> <#>
1516

> <PLATE>
LAT019

> <ROW>
D

> <COL>
11

> <COORD>
D11

> <LATID>
LAT019D11

> <Supplier>
Chembridge

> <Suplier_CAT#>
7793686

> <Name>
Novel

> <Concentration_(mM)>
2.5

> <IC50_(µM)>
inactive

> <Yeast_Active?>
-

> <Pubchem_CID>
970142

$$$$
