
  -ISIS-  08130814242D

 26 30  0  0  0  0  0  0  0  0999 V2000
    5.4792   -2.8542    0.0000 N   0  3  0  0  0  0  0  0  0  0  0  0
    3.7375   -2.8542    0.0000 C   0  0  0  0  0  0  0  0  0  0  0  0
    5.4750   -1.8542    0.0000 C   0  0  0  0  0  0  0  0  0  0  0  0
    4.6042   -1.3500    0.0000 C   0  0  0  0  0  0  0  0  0  0  0  0
    6.3417   -1.3500    0.0000 C   0  0  0  0  0  0  0  0  0  0  0  0
    3.7375   -1.8542    0.0000 C   0  0  0  0  0  0  0  0  0  0  0  0
    4.6042   -3.3625    0.0000 C   0  0  0  0  0  0  0  0  0  0  0  0
    2.8500   -3.3292    0.0000 C   0  0  0  0  0  0  0  0  0  0  0  0
    7.2042   -1.8500    0.0000 C   0  0  0  0  0  0  0  0  0  0  0  0
    6.3417   -0.3500    0.0000 C   0  0  0  0  0  0  0  0  0  0  0  0
    8.0792   -1.3500    0.0000 C   0  0  0  0  0  0  0  0  0  0  0  0
    8.0792   -0.3500    0.0000 C   0  0  0  0  0  0  0  0  0  0  0  0
    4.6042   -0.3500    0.0000 C   0  0  0  0  0  0  0  0  0  0  0  0
    7.2042    0.1500    0.0000 C   0  0  0  0  0  0  0  0  0  0  0  0
    2.8500   -1.3250    0.0000 C   0  0  0  0  0  0  0  0  0  0  0  0
    1.9625   -2.7917    0.0000 C   0  0  0  0  0  0  0  0  0  0  0  0
    2.6042   -4.3375    0.0000 O   0  0  0  0  0  0  0  0  0  0  0  0
    9.0292   -1.6542    0.0000 O   0  0  0  0  0  0  0  0  0  0  0  0
    9.0292   -0.0417    0.0000 O   0  0  0  0  0  0  0  0  0  0  0  0
    1.1792   -3.4667    0.0000 O   0  0  0  0  0  0  0  0  0  0  0  0
    1.5792   -4.4250    0.0000 C   0  0  0  0  0  0  0  0  0  0  0  0
    9.6125   -0.8500    0.0000 C   0  0  0  0  0  0  0  0  0  0  0  0
    5.4750    0.1458    0.0000 C   0  0  0  0  0  0  0  0  0  0  0  0
    1.9625   -1.7875    0.0000 C   0  0  0  0  0  0  0  0  0  0  0  0
    6.1792   -3.5667    0.0000 C   0  0  0  0  0  0  0  0  0  0  0  0
    6.8292   -2.4917    0.0000 Cl  0  5  0  0  0  0  0  0  0  0  0  0
  2  7  1  0  0  0  0
  3  1  1  0  0  0  0
  4  3  2  0  0  0  0
  5  3  1  0  0  0  0
  6  2  2  0  0  0  0
  7  1  2  0  0  0  0
  8  2  1  0  0  0  0
  9  5  2  0  0  0  0
 10  5  1  0  0  0  0
 11  9  1  0  0  0  0
 12 14  1  0  0  0  0
 13  4  1  0  0  0  0
 14 10  2  0  0  0  0
 15  6  1  0  0  0  0
 16  8  2  0  0  0  0
 17  8  1  0  0  0  0
 18 11  1  0  0  0  0
 19 12  1  0  0  0  0
 20 16  1  0  0  0  0
 21 17  1  0  0  0  0
 22 18  1  0  0  0  0
 23 10  1  0  0  0  0
 24 16  1  0  0  0  0
 25  1  1  0  0  0  0
  4  6  1  0  0  0  0
 23 13  2  0  0  0  0
 20 21  1  0  0  0  0
 24 15  2  0  0  0  0
 11 12  2  0  0  0  0
 22 19  1  0  0  0  0
M  CHG  2   1   1  26  -1
M  END
> <#>
278

> <PLATE>
LAT004

> <ROW>
F

> <COL>
6

> <COORD>
F06

> <LATID>
LAT004F06

> <Supplier>
Sigma

> <Suplier_CAT#>
S 5890

> <Name>
Sanguinarine Chloride

> <Concentration_(mM)>
2.5

> <IC50_(µM)>
12

> <Yeast_Active?>
+

> <Pubchem_CID>
5154

> <Description>
Inhibitor of Mg2+ and Na+/K+-ATPase; isolated from the leaves and stems of Macleaya cordata and microcarpa

$$$$
