
  -ISIS-  08130814242D

 35 37  0  0  0  0  0  0  0  0999 V2000
    8.7000   -5.9667    0.0000 Cl  0  0  0  0  0  0  0  0  0  0  0  0
    6.8125   -2.9792    0.0000 C   0  0  2  0  0  0  0  0  0  0  0  0
    5.5125   -2.9792    0.0000 C   0  0  0  0  0  0  0  0  0  0  0  0
    8.1042   -2.9792    0.0000 C   0  0  0  0  0  0  0  0  0  0  0  0
    6.1625   -2.6042    0.0000 C   0  0  0  0  0  0  0  0  0  0  0  0
    7.4542   -2.6042    0.0000 C   0  0  0  0  0  0  0  0  0  0  0  0
    4.8625   -2.6042    0.0000 C   0  0  0  0  0  0  0  0  0  0  0  0
    6.8125   -3.7292    0.0000 C   0  0  2  0  0  0  0  0  0  0  0  0
    8.1042   -3.7292    0.0000 C   0  0  0  0  0  0  0  0  0  0  0  0
    4.2167   -2.9792    0.0000 C   0  0  0  0  0  0  0  0  0  0  0  0
    4.2167   -3.7292    0.0000 C   0  0  0  0  0  0  0  0  0  0  0  0
    5.5125   -3.7292    0.0000 C   0  0  1  0  0  0  0  0  0  0  0  0
    4.8625   -4.1042    0.0000 C   0  0  2  0  0  0  0  0  0  0  0  0
    7.4542   -4.1042    0.0000 C   0  0  1  0  0  0  0  0  0  0  0  0
    6.1625   -4.1042    0.0000 C   0  0  0  0  0  0  0  0  0  0  0  0
    8.7625   -2.6000    0.0000 C   0  0  0  0  0  0  0  0  0  0  0  0
    3.5750   -4.1042    0.0000 C   0  0  0  0  0  0  0  0  0  0  0  0
    3.5750   -2.6042    0.0000 C   0  0  0  0  0  0  0  0  0  0  0  0
    7.4542   -1.8542    0.0000 O   0  0  0  0  0  0  0  0  0  0  0  0
    4.8625   -1.8542    0.0000 O   0  0  0  0  0  0  0  0  0  0  0  0
    8.0125   -4.6125    0.0000 N   0  0  3  0  0  0  0  0  0  0  0  0
    6.8125   -2.2292    0.0000 O   0  0  0  0  0  0  0  0  0  0  0  0
    8.7625   -1.8500    0.0000 O   0  0  0  0  0  0  0  0  0  0  0  0
    6.1625   -1.8542    0.0000 O   0  0  0  0  0  0  0  0  0  0  0  0
    8.7625   -4.1125    0.0000 O   0  0  0  0  0  0  0  0  0  0  0  0
    2.9250   -3.7292    0.0000 C   0  0  0  0  0  0  0  0  0  0  0  0
    2.9250   -2.9792    0.0000 C   0  0  0  0  0  0  0  0  0  0  0  0
    4.4875   -4.7542    0.0000 O   0  0  0  0  0  0  0  0  0  0  0  0
    9.4125   -2.9750    0.0000 N   0  0  0  0  0  0  0  0  0  0  0  0
    3.5750   -4.8625    0.0000 Cl  0  0  0  0  0  0  0  0  0  0  0  0
    3.5750   -1.8542    0.0000 O   0  0  0  0  0  0  0  0  0  0  0  0
    7.8625   -5.3417    0.0000 C   0  0  0  0  0  0  0  0  0  0  0  0
    8.8125   -4.6000    0.0000 C   0  0  0  0  0  0  0  0  0  0  0  0
    6.8125   -4.1625    0.0000 H   0  0  0  0  0  0  0  0  0  0  0  0
    5.5000   -4.1917    0.0000 H   0  0  0  0  0  0  0  0  0  0  0  0
  3  5  2  0  0  0  0
  4  6  1  0  0  0  0
  5  2  1  0  0  0  0
  6  2  1  0  0  0  0
  7  3  1  0  0  0  0
  8  2  1  0  0  0  0
  9 14  1  0  0  0  0
 10  7  1  0  0  0  0
 11 13  1  0  0  0  0
 12 15  1  0  0  0  0
 13 12  1  0  0  0  0
 14  8  1  0  0  0  0
 15  8  1  0  0  0  0
 16  4  1  0  0  0  0
 17 11  1  0  0  0  0
 18 10  1  0  0  0  0
 19  6  2  0  0  0  0
 20  7  2  0  0  0  0
 14 21  1  1  0  0  0
  2 22  1  1  0  0  0
 23 16  2  0  0  0  0
 24  5  1  0  0  0  0
 25  9  1  0  0  0  0
 26 17  2  0  0  0  0
 27 18  2  0  0  0  0
 13 28  1  6  0  0  0
 29 16  1  0  0  0  0
 30 17  1  0  0  0  0
 31 18  1  0  0  0  0
 32 21  1  0  0  0  0
 33 21  1  0  0  0  0
  8 34  1  1  0  0  0
 12 35  1  1  0  0  0
 12  3  1  0  0  0  0
  4  9  2  0  0  0  0
 11 10  2  0  0  0  0
 27 26  1  0  0  0  0
M  END
> <#>
50

> <PLATE>
LAT001

> <ROW>
B

> <COL>
8

> <COORD>
B08

> <LATID>
LAT001B08

> <Supplier>
Microsource

> <Suplier_CAT#>
01500226

> <Name>
Demeclocycline Hydrochloride

> <Concentration_(mM)>
2.5

> <IC50_(µM)>
13

> <Yeast_Active?>
-

> <Pubchem_CID>
5281008

> <Description>
Antibacterial

$$$$
