
  -ISIS-  08130814242D

 37 41  0  0  0  0  0  0  0  0999 V2000
    9.1667   -2.8167    0.0000 C   0  0  2  0  0  0  0  0  0  0  0  0
   10.1042   -2.8042    0.0000 C   0  0  0  0  0  0  0  0  0  0  0  0
    9.1542   -3.8667    0.0000 O   0  0  0  0  0  0  0  0  0  0  0  0
   -0.6625   -3.8250    0.0000 N   0  0  3  0  0  0  0  0  0  0  0  0
    8.2875   -2.3667    0.0000 O   0  0  0  0  0  0  0  0  0  0  0  0
    1.3292   -3.8250    0.0000 N   0  0  3  0  0  0  0  0  0  0  0  0
   10.6167   -1.9542    0.0000 C   0  0  0  0  0  0  0  0  0  0  0  0
    9.1542   -0.8250    0.0000 N   0  0  3  0  0  0  0  0  0  0  0  0
    8.2875    0.6750    0.0000 N   0  0  0  0  0  0  0  0  0  0  0  0
   -1.7333   -3.2292    0.0000 C   0  0  0  0  0  0  0  0  0  0  0  0
    8.8250   -1.6792    0.0000 C   0  0  0  0  0  0  0  0  0  0  0  0
   10.6167   -3.6792    0.0000 C   0  0  0  0  0  0  0  0  0  0  0  0
    8.2875   -0.3250    0.0000 C   0  0  0  0  0  0  0  0  0  0  0  0
   11.6167   -1.9542    0.0000 C   0  0  0  0  0  0  0  0  0  0  0  0
    2.3292   -3.8250    0.0000 C   0  0  0  0  0  0  0  0  0  0  0  0
    7.4250   -3.8667    0.0000 C   0  0  2  0  0  0  0  0  0  0  0  0
   10.0167    0.6750    0.0000 C   0  0  0  0  0  0  0  0  0  0  0  0
   -0.1583   -2.9667    0.0000 C   0  0  0  0  0  0  0  0  0  0  0  0
   -0.1583   -4.6792    0.0000 C   0  0  0  0  0  0  0  0  0  0  0  0
    0.8417   -4.6792    0.0000 C   0  0  0  0  0  0  0  0  0  0  0  0
    0.8417   -2.9667    0.0000 C   0  0  0  0  0  0  0  0  0  0  0  0
   10.0167   -0.3250    0.0000 C   0  0  0  0  0  0  0  0  0  0  0  0
   -1.7333   -2.0417    0.0000 O   0  0  0  0  0  0  0  0  0  0  0  0
    7.4250   -2.8667    0.0000 C   0  0  0  0  0  0  0  0  0  0  0  0
    2.8542   -2.9750    0.0000 C   0  0  0  0  0  0  0  0  0  0  0  0
    2.8542   -4.6792    0.0000 C   0  0  0  0  0  0  0  0  0  0  0  0
   12.1375   -2.8042    0.0000 C   0  0  0  0  0  0  0  0  0  0  0  0
    9.9125   -1.2417    0.0000 Cl  0  0  0  0  0  0  0  0  0  0  0  0
    5.2292   -3.8042    0.0000 O   0  0  0  0  0  0  0  0  0  0  0  0
   11.6167   -3.6792    0.0000 C   0  0  0  0  0  0  0  0  0  0  0  0
    4.3292   -3.8250    0.0000 C   0  0  0  0  0  0  0  0  0  0  0  0
    6.3292   -3.4125    0.0000 C   0  0  0  0  0  0  0  0  0  0  0  0
    3.8542   -2.9750    0.0000 C   0  0  0  0  0  0  0  0  0  0  0  0
    3.8542   -4.6792    0.0000 C   0  0  0  0  0  0  0  0  0  0  0  0
   13.1375   -2.8042    0.0000 Cl  0  0  0  0  0  0  0  0  0  0  0  0
   -2.4458   -3.6375    0.0000 C   0  0  0  0  0  0  0  0  0  0  0  0
    7.4250   -4.8667    0.0000 H   0  0  0  0  0  0  0  0  0  0  0  0
  1  2  1  6  0  0  0
  3  1  1  0  0  0  0
  4 18  1  0  0  0  0
  5  1  1  0  0  0  0
  6 15  1  0  0  0  0
  7  2  2  0  0  0  0
  8 11  1  0  0  0  0
  9 13  2  0  0  0  0
 10  4  1  0  0  0  0
  1 11  1  1  0  0  0
 12  2  1  0  0  0  0
 13  8  1  0  0  0  0
 14  7  1  0  0  0  0
 15 26  2  0  0  0  0
 16  3  1  0  0  0  0
 17 22  2  0  0  0  0
 18 21  1  0  0  0  0
 19 20  1  0  0  0  0
 20  6  1  0  0  0  0
 21  6  1  0  0  0  0
 22  8  1  0  0  0  0
 23 10  2  0  0  0  0
 24  5  1  0  0  0  0
 25 33  2  0  0  0  0
 26 34  1  0  0  0  0
 27 30  1  0  0  0  0
 28  7  1  0  0  0  0
 29 32  1  0  0  0  0
 30 12  2  0  0  0  0
 31 29  1  0  0  0  0
 16 32  1  1  0  0  0
 33 31  1  0  0  0  0
 34 31  2  0  0  0  0
 35 27  1  0  0  0  0
 36 10  1  0  0  0  0
 16 37  1  6  0  0  0
 24 16  1  0  0  0  0
  9 17  1  0  0  0  0
 27 14  2  0  0  0  0
 15 25  1  0  0  0  0
  4 19  1  0  0  0  0
M  END
> <#>
239

> <PLATE>
LAT003

> <ROW>
G

> <COL>
11

> <COORD>
G11

> <LATID>
LAT003G11

> <Supplier>
Sigma

> <Suplier_CAT#>
K 1003

> <Name>
Ketoconazole

> <Concentration_(mM)>
2.5

> <IC50_(µM)>
3.7

> <Yeast_Active?>
+

> <Pubchem_CID>
3823

> <Description>
Potent inhibitor of cytochrome P450c17 enzyme; antifungal agent

> <LATCA_Notes>
Phenocopies Brassinazole (Brassinosteroid biosynthetic inhibitor) in Arabidopsis seedlings

$$$$
