
  -ISIS-  08130814242D

 22 22  0  0  0  0  0  0  0  0999 V2000
    5.9060   -5.1856    0.0000 C   0  0  0  0  0  0  0  0  0  0  0  0
    5.0620   -4.8652    0.0000 C   0  0  3  0  0  0  0  0  0  0  0  0
    4.2359   -5.2354    0.0000 C   0  0  0  0  0  0  0  0  0  0  0  0
    4.9748   -5.6679    0.0000 C   0  0  0  0  0  0  0  0  0  0  0  0
    2.8542   -2.8458    0.0000 C   0  0  0  0  0  0  0  0  0  0  0  0
    3.6343   -2.3917    0.0000 C   0  0  3  0  0  0  0  0  0  0  0  0
    3.8667   -1.5167    0.0000 C   0  0  0  0  0  0  0  0  0  0  0  0
    3.2792   -1.8792    0.0000 C   0  0  0  0  0  0  0  0  0  0  0  0
    4.3486   -2.8000    0.0000 C   0  0  0  0  0  0  0  0  0  0  0  0
    4.3474   -3.6273    0.0000 C   0  0  0  0  0  0  0  0  0  0  0  0
    5.0622   -4.0402    0.0000 C   0  0  0  0  0  0  0  0  0  0  0  0
    5.7787   -3.6269    0.0000 C   0  0  0  0  0  0  0  0  0  0  0  0
    5.7758   -2.7963    0.0000 C   0  0  0  0  0  0  0  0  0  0  0  0
    5.0604   -2.3872    0.0000 C   0  0  0  0  0  0  0  0  0  0  0  0
    6.4887   -2.3811    0.0000 C   0  0  0  0  0  0  0  0  0  0  0  0
    3.6326   -4.0393    0.0000 O   0  0  0  0  0  0  0  0  0  0  0  0
    7.2000   -2.7917    0.0000 C   0  0  0  0  0  0  0  0  0  0  0  0
    7.9125   -2.3792    0.0000 C   0  0  0  0  0  0  0  0  0  0  0  0
    8.6250   -2.7917    0.0000 N   0  0  0  0  0  0  0  0  0  0  0  0
    7.2005   -3.6167    0.0000 C   0  0  0  0  0  0  0  0  0  0  0  0
    7.9125   -1.5542    0.0000 S   0  0  0  0  0  0  0  0  0  0  0  0
    7.2044   -4.4445    0.0000 N   0  0  0  0  0  0  0  0  0  0  0  0
  5  6  1  0  0  0  0
 12 13  1  0  0  0  0
  6  7  1  0  0  0  0
 13 14  2  0  0  0  0
 14  9  1  0  0  0  0
  6  8  1  0  0  0  0
 13 15  1  0  0  0  0
  9  6  1  0  0  0  0
 10 16  1  0  0  0  0
 11  2  1  0  0  0  0
  1  2  1  0  0  0  0
 15 17  2  0  0  0  0
  9 10  2  0  0  0  0
 17 18  1  0  0  0  0
  2  3  1  0  0  0  0
 18 19  1  0  0  0  0
 10 11  1  0  0  0  0
 17 20  1  0  0  0  0
  2  4  1  0  0  0  0
 18 21  2  0  0  0  0
 11 12  2  0  0  0  0
 20 22  3  0  0  0  0
M  END
> <#>
281

> <PLATE>
LAT004

> <ROW>
A

> <COL>
7

> <COORD>
A07

> <LATID>
LAT004A07

> <Supplier>
Sigma

> <Suplier_CAT#>
T 2067

> <Name>
Tyrphostin AG 879

> <Concentration_(mM)>
2.5

> <IC50_(µM)>
100

> <Yeast_Active?>
-

> <Pubchem_CID>
5487525

> <Description>
Tyrosine kinase nerve growth factor receptor (TrkA) inhibitor; inhibits 140 trk protooncogene and HER-2

$$$$
