
  -ISIS-  08130814242D

 22 23  0  0  0  0  0  0  0  0999 V2000
   -3.3500   -1.1500    0.0000 C   0  0  0  0  0  0  0  0  0  0  0  0
   -3.4500   -0.2500    0.0000 C   0  0  0  0  0  0  0  0  0  0  0  0
   -4.2708    0.1125    0.0000 C   0  0  3  0  0  0  0  0  0  0  0  0
   -2.5958   -1.5875    0.0000 C   0  0  0  0  0  0  0  0  0  0  0  0
   -0.3125   -1.1500    0.0000 C   0  0  0  0  0  0  0  0  0  0  0  0
   -1.8333   -1.1500    0.0000 N   0  0  0  0  0  0  0  0  0  0  0  0
   -1.0708   -1.5875    0.0000 N   0  0  0  0  0  0  0  0  0  0  0  0
    0.4667   -1.5875    0.0000 C   0  0  0  0  0  0  0  0  0  0  0  0
   -2.7500    0.2708    0.0000 O   0  0  0  0  0  0  0  0  0  0  0  0
   -0.3125   -0.2500    0.0000 O   0  0  0  0  0  0  0  0  0  0  0  0
   -4.6333   -0.7042    0.0000 F   0  0  0  0  0  0  0  0  0  0  0  0
   -5.0708    0.4708    0.0000 F   0  0  0  0  0  0  0  0  0  0  0  0
   -3.9125    0.9125    0.0000 F   0  0  0  0  0  0  0  0  0  0  0  0
    1.2292   -1.1500    0.0000 C   0  0  0  0  0  0  0  0  0  0  0  0
    0.4667   -2.4667    0.0000 C   0  0  0  0  0  0  0  0  0  0  0  0
   -4.0208   -1.7500    0.0000 C   0  0  0  0  0  0  0  0  0  0  0  0
    1.9875   -2.4667    0.0000 C   0  0  0  0  0  0  0  0  0  0  0  0
    1.2292   -2.9042    0.0000 C   0  0  0  0  0  0  0  0  0  0  0  0
    1.9875   -1.5875    0.0000 C   0  0  0  0  0  0  0  0  0  0  0  0
    2.7500   -2.9292    0.0000 Br  0  0  0  0  0  0  0  0  0  0  0  0
   -2.7958   -2.4500    0.0000 C   0  0  0  0  0  0  0  0  0  0  0  0
   -3.6500   -2.5292    0.0000 C   0  0  0  0  0  0  0  0  0  0  0  0
  2  1  1  0  0  0  0
  3  2  1  0  0  0  0
  4  1  2  0  0  0  0
  5  7  1  0  0  0  0
  6  4  1  0  0  0  0
  7  6  1  0  0  0  0
  8  5  1  0  0  0  0
  9  2  2  0  0  0  0
 10  5  2  0  0  0  0
 11  3  1  0  0  0  0
 12  3  1  0  0  0  0
 13  3  1  0  0  0  0
 14  8  2  0  0  0  0
 15  8  1  0  0  0  0
 16  1  1  0  0  0  0
 17 18  1  0  0  0  0
 18 15  2  0  0  0  0
 19 14  1  0  0  0  0
 20 17  1  0  0  0  0
 21  4  1  0  0  0  0
 22 16  1  0  0  0  0
 22 21  1  0  0  0  0
 19 17  2  0  0  0  0
M  END
> <#>
2067

> <PLATE>
LAT026

> <ROW>
C

> <COL>
10

> <COORD>
C10

> <LATID>
LAT026C10

> <Supplier>
Chembridge

> <Suplier_CAT#>
5652745

> <Sec_Name>
202_A02

> <Concentration_(mM)>
2.5

> <IC50_(µM)>
>100

> <Yeast_Active?>
+

> <Pubchem_CID>
2858410

$$$$
