
  -ISIS-  08130814242D

 20 21  0  0  0  0  0  0  0  0999 V2000
    4.4292    1.2208    0.0000 S   0  0  3  0  0  0  0  0  0  0  0  0
    3.9000    1.7500    0.0000 N   0  0  0  0  0  0  0  0  0  0  0  0
    5.0792    1.5958    0.0000 C   0  0  0  0  0  0  0  0  0  0  0  0
    3.8542    0.7375    0.0000 O   0  0  0  0  0  0  0  0  0  0  0  0
    4.8542    0.6083    0.0000 O   0  0  0  0  0  0  0  0  0  0  0  0
    1.9167    1.8958    0.0000 C   0  0  0  0  0  0  0  0  0  0  0  0
    3.1750    1.5583    0.0000 C   0  0  0  0  0  0  0  0  0  0  0  0
    1.7250    1.1708    0.0000 C   0  0  0  0  0  0  0  0  0  0  0  0
    2.6417    2.0875    0.0000 C   0  0  0  0  0  0  0  0  0  0  0  0
    5.7292    1.2208    0.0000 C   0  0  0  0  0  0  0  0  0  0  0  0
    5.0792    2.3458    0.0000 C   0  0  0  0  0  0  0  0  0  0  0  0
    2.2542    0.6375    0.0000 C   0  0  0  0  0  0  0  0  0  0  0  0
    6.3792    2.3458    0.0000 C   0  0  0  0  0  0  0  0  0  0  0  0
    2.9792    0.8333    0.0000 C   0  0  0  0  0  0  0  0  0  0  0  0
    1.0000    0.9750    0.0000 Br  0  0  0  0  0  0  0  0  0  0  0  0
    7.0292    2.7208    0.0000 S   0  0  0  0  0  0  0  0  0  0  0  0
    5.7292    2.7208    0.0000 C   0  0  0  0  0  0  0  0  0  0  0  0
    6.3792    1.5958    0.0000 C   0  0  0  0  0  0  0  0  0  0  0  0
    1.3875    2.4208    0.0000 C   0  0  0  0  0  0  0  0  0  0  0  0
    7.6750    2.3458    0.0000 C   0  0  0  0  0  0  0  0  0  0  0  0
  2  1  1  0  0  0  0
  3  1  1  0  0  0  0
  4  1  2  0  0  0  0
  5  1  2  0  0  0  0
  6  9  2  0  0  0  0
  7  2  1  0  0  0  0
  8 12  2  0  0  0  0
  9  7  1  0  0  0  0
 10  3  1  0  0  0  0
 11  3  2  0  0  0  0
 12 14  1  0  0  0  0
 13 17  2  0  0  0  0
 14  7  2  0  0  0  0
 15  8  1  0  0  0  0
 16 13  1  0  0  0  0
 17 11  1  0  0  0  0
 18 10  2  0  0  0  0
 19  6  1  0  0  0  0
 20 16  1  0  0  0  0
 18 13  1  0  0  0  0
  6  8  1  0  0  0  0
M  END
> <#>
1090

> <PLATE>
LAT014

> <ROW>
B

> <COL>
8

> <COORD>
B08

> <LATID>
LAT014B08

> <Supplier>
Chembridge

> <Suplier_CAT#>
7963421

> <Name>
Novel

> <Concentration_(mM)>
2.5

> <IC50_(µM)>
>100

> <Yeast_Active?>
-

> <Pubchem_CID>
1253406

$$$$
