
  -ISIS-  08130814242D

 21 22  0  0  0  0  0  0  0  0999 V2000
   -2.0333    0.3333    0.0000 N   0  0  0  0  0  0  0  0  0  0  0  0
   -2.6958    0.7125    0.0000 C   0  0  0  0  0  0  0  0  0  0  0  0
   -2.0333   -0.4500    0.0000 C   0  0  0  0  0  0  0  0  0  0  0  0
   -2.6958    1.4708    0.0000 C   0  0  0  0  0  0  0  0  0  0  0  0
   -1.3333   -0.8292    0.0000 C   0  0  0  0  0  0  0  0  0  0  0  0
   -0.0125   -1.6042    0.0000 C   0  0  0  0  0  0  0  0  0  0  0  0
   -2.0333    1.8708    0.0000 O   0  0  0  0  0  0  0  0  0  0  0  0
   -1.3333   -1.6042    0.0000 C   0  0  0  0  0  0  0  0  0  0  0  0
   -0.6708   -0.4500    0.0000 C   0  0  0  0  0  0  0  0  0  0  0  0
   -0.6708   -1.9875    0.0000 C   0  0  0  0  0  0  0  0  0  0  0  0
   -0.0125   -0.8500    0.0000 C   0  0  0  0  0  0  0  0  0  0  0  0
    0.6667   -1.9667    0.0000 O   0  0  0  0  0  0  0  0  0  0  0  0
   -3.3500    0.3333    0.0000 C   0  0  0  0  0  0  0  0  0  0  0  0
   -3.3500    1.8500    0.0000 C   0  0  0  0  0  0  0  0  0  0  0  0
    1.3292   -1.5667    0.0000 C   0  0  0  0  0  0  0  0  0  0  0  0
    1.9875   -1.9500    0.0000 C   0  0  0  0  0  0  0  0  0  0  0  0
    3.3292   -1.9042    0.0000 C   0  0  0  0  0  0  0  0  0  0  0  0
    2.6500   -1.5292    0.0000 C   0  0  0  0  0  0  0  0  0  0  0  0
    3.9875   -1.5042    0.0000 C   0  0  0  0  0  0  0  0  0  0  0  0
   -4.0208    0.7125    0.0000 C   0  0  0  0  0  0  0  0  0  0  0  0
   -4.0208    1.4708    0.0000 C   0  0  0  0  0  0  0  0  0  0  0  0
  2  1  1  0  0  0  0
  3  1  2  0  0  0  0
  4  2  2  0  0  0  0
  5  3  1  0  0  0  0
  6 11  2  0  0  0  0
  7  4  1  0  0  0  0
  8  5  1  0  0  0  0
  9  5  2  0  0  0  0
 10  8  2  0  0  0  0
 11  9  1  0  0  0  0
 12  6  1  0  0  0  0
 13  2  1  0  0  0  0
 14  4  1  0  0  0  0
 15 12  1  0  0  0  0
 16 15  1  0  0  0  0
 17 18  1  0  0  0  0
 18 16  1  0  0  0  0
 19 17  1  0  0  0  0
 20 13  2  0  0  0  0
 21 20  1  0  0  0  0
 10  6  1  0  0  0  0
 14 21  2  0  0  0  0
M  END
> <#>
598

> <PLATE>
LAT008

> <ROW>
F

> <COL>
6

> <COORD>
F06

> <LATID>
LAT008F06

> <Supplier>
Chembridge

> <Suplier_CAT#>
5483111

> <Name>
Novel

> <Sec_Name>
141_B06

> <Concentration_(mM)>
2.5

> <IC50_(µM)>
90

> <Yeast_Active?>
-

> <Pubchem_CID>
611489

$$$$
