
  -ISIS-  08130814242D

 25 27  0  0  0  0  0  0  0  0999 V2000
    3.5667    1.8625    0.0000 N   0  0  3  0  0  0  0  0  0  0  0  0
    2.3542    1.9958    0.0000 C   0  0  0  0  0  0  0  0  0  0  0  0
    3.0042    2.3708    0.0000 C   0  0  0  0  0  0  0  0  0  0  0  0
    3.2625    1.1833    0.0000 C   0  0  0  0  0  0  0  0  0  0  0  0
    2.5167    1.2583    0.0000 C   0  0  0  0  0  0  0  0  0  0  0  0
    3.0042    3.1208    0.0000 C   0  0  0  0  0  0  0  0  0  0  0  0
    1.7042    2.3708    0.0000 C   0  0  0  0  0  0  0  0  0  0  0  0
   -1.5375    3.4958    0.0000 N   0  0  0  0  0  0  0  0  0  0  0  0
    0.4125    3.1208    0.0000 N   0  0  0  0  0  0  0  0  0  0  0  0
    4.3000    2.0208    0.0000 C   0  0  0  0  0  0  0  0  0  0  0  0
    1.7042    3.1208    0.0000 C   0  0  0  0  0  0  0  0  0  0  0  0
    2.3542    3.4958    0.0000 C   0  0  0  0  0  0  0  0  0  0  0  0
   -0.8875    3.1208    0.0000 C   0  0  0  0  0  0  0  0  0  0  0  0
    3.5667    0.4958    0.0000 C   0  0  0  0  0  0  0  0  0  0  0  0
    2.0667    0.6500    0.0000 C   0  0  0  0  0  0  0  0  0  0  0  0
   -0.2375    3.4958    0.0000 C   0  0  0  0  0  0  0  0  0  0  0  0
    1.0542    3.4958    0.0000 C   0  0  0  0  0  0  0  0  0  0  0  0
   -2.1875    3.1208    0.0000 C   0  0  0  0  0  0  0  0  0  0  0  0
   -0.8875    2.3708    0.0000 C   0  0  0  0  0  0  0  0  0  0  0  0
    4.8000    1.4625    0.0000 C   0  0  0  0  0  0  0  0  0  0  0  0
    3.1250   -0.1125    0.0000 C   0  0  0  0  0  0  0  0  0  0  0  0
    2.3792   -0.0292    0.0000 C   0  0  0  0  0  0  0  0  0  0  0  0
   -2.1875    2.3708    0.0000 C   0  0  0  0  0  0  0  0  0  0  0  0
   -1.5375    1.9958    0.0000 C   0  0  0  0  0  0  0  0  0  0  0  0
    5.5500   -0.1125    0.0000 Cl  0  0  0  0  0  0  0  0  0  0  0  0
  2  3  2  0  0  0  0
  3  1  1  0  0  0  0
  4  1  1  0  0  0  0
  5  4  1  0  0  0  0
  6  3  1  0  0  0  0
  7  2  1  0  0  0  0
  8 13  2  0  0  0  0
  9 17  1  0  0  0  0
 10  1  1  0  0  0  0
 11 12  1  0  0  0  0
 12  6  2  0  0  0  0
 13 16  1  0  0  0  0
 14  4  2  0  0  0  0
 15  5  2  0  0  0  0
 16  9  1  0  0  0  0
 17 11  1  0  0  0  0
 18  8  1  0  0  0  0
 19 13  1  0  0  0  0
 20 10  1  0  0  0  0
 21 14  1  0  0  0  0
 22 21  2  0  0  0  0
 23 24  1  0  0  0  0
 24 19  2  0  0  0  0
  5  2  1  0  0  0  0
 22 15  1  0  0  0  0
  7 11  2  0  0  0  0
 18 23  2  0  0  0  0
M  END
> <#>
1472

> <PLATE>
LAT019

> <ROW>
H

> <COL>
5

> <COORD>
H05

> <LATID>
LAT019H05

> <Supplier>
Chembridge

> <Suplier_CAT#>
9034496

> <Name>
Novel

> <Concentration_(mM)>
2.5

> <IC50_(µM)>
inactive

> <Yeast_Active?>
-

> <Pubchem_CID>
4722595

$$$$
