
  -ISIS-  08130814242D

 32 37  0  0  0  0  0  0  0  0999 V2000
    4.2894   -5.9625    0.0000 N   0  0  0  0  0  0  0  0  0  0  0  0
    4.9694   -5.4797    0.0000 C   0  0  0  0  0  0  0  0  0  0  0  0
    4.7144   -4.6690    0.0000 C   0  0  0  0  0  0  0  0  0  0  0  0
    3.8884   -4.6658    0.0000 C   0  0  0  0  0  0  0  0  0  0  0  0
    3.3369   -4.0374    0.0000 C   0  0  0  0  0  0  0  0  0  0  0  0
    2.5169   -4.2008    0.0000 C   0  0  0  0  0  0  0  0  0  0  0  0
    2.2485   -4.9926    0.0000 C   0  0  0  0  0  0  0  0  0  0  0  0
    2.8000   -5.6210    0.0000 C   0  0  0  0  0  0  0  0  0  0  0  0
    3.6200   -5.4576    0.0000 C   0  0  0  0  0  0  0  0  0  0  0  0
    8.4542   -3.1292    0.0000 C   0  0  0  0  0  0  0  0  0  0  0  0
    8.6667   -3.9250    0.0000 C   0  0  0  0  0  0  0  0  0  0  0  0
    9.4577   -4.1377    0.0000 C   0  0  0  0  0  0  0  0  0  0  0  0
   10.0419   -3.5578    0.0000 C   0  0  0  0  0  0  0  0  0  0  0  0
    9.8294   -2.7620    0.0000 C   0  0  0  0  0  0  0  0  0  0  0  0
    9.0327   -2.5460    0.0000 N   0  0  3  0  0  0  0  0  0  0  0  0
    7.6615   -2.9173    0.0000 C   0  0  0  0  0  0  0  0  0  0  0  0
    7.0745   -3.4986    0.0000 C   0  0  0  0  0  0  0  0  0  0  0  0
    7.2848   -4.2955    0.0000 C   0  0  0  0  0  0  0  0  0  0  0  0
    8.0817   -4.5124    0.0000 C   0  0  0  0  0  0  0  0  0  0  0  0
    5.9608   -2.5312    0.0000 N   0  0  3  0  0  0  0  0  0  0  0  0
    6.3728   -3.2452    0.0000 C   0  0  0  0  0  0  0  0  0  0  0  0
    7.6230   -2.0745    0.0000 N   0  0  3  0  0  0  0  0  0  0  0  0
    6.9264   -1.5824    0.0000 C   0  0  0  0  0  0  0  0  0  0  0  0
    6.1642   -1.8477    0.0000 C   0  0  0  0  0  0  0  0  0  0  0  0
    5.1417   -2.5292    0.0000 C   0  0  0  0  0  0  0  0  0  0  0  0
    4.7250   -3.2417    0.0000 C   0  0  0  0  0  0  0  0  0  0  0  0
    5.1315   -3.9548    0.0000 C   0  0  0  0  0  0  0  0  0  0  0  0
    5.9562   -3.9617    0.0000 C   0  0  0  0  0  0  0  0  0  0  0  0
    1.4458   -5.2042    0.0000 F   0  0  0  0  0  0  0  0  0  0  0  0
    8.6125   -1.8292    0.0000 S   0  0  3  0  0  0  0  0  0  0  0  0
    8.1958   -1.1125    0.0000 O   0  0  0  0  0  0  0  0  0  0  0  0
    9.4083   -1.6125    0.0000 O   0  0  0  0  0  0  0  0  0  0  0  0
  4  5  1  0  0  0  0
  5  6  2  0  0  0  0
 16 17  2  0  0  0  0
  6  7  1  0  0  0  0
 17 18  1  0  0  0  0
  7  8  2  0  0  0  0
 18 19  2  0  0  0  0
 19 11  1  0  0  0  0
 10 16  1  0  0  0  0
 20 21  1  0  0  0  0
  8  9  1  0  0  0  0
 10 11  2  0  0  0  0
  1  2  1  0  0  0  0
  2  3  2  0  0  0  0
  3  4  1  0  0  0  0
 16 22  1  0  0  0  0
 22 23  1  0  0  0  0
 24 20  1  0  0  0  0
 23 24  1  0  0  0  0
 25 26  1  0  0  0  0
  9  1  1  0  0  0  0
  4  9  2  0  0  0  0
 10 15  1  0  0  0  0
 25 20  1  0  0  0  0
 26 27  2  0  0  0  0
 27 28  1  0  0  0  0
 28 21  1  0  0  0  0
 27  3  1  0  0  0  0
 11 12  1  0  0  0  0
  7 29  1  0  0  0  0
 12 13  1  0  0  0  0
 15 30  1  0  0  0  0
 22 30  1  0  0  0  0
 13 14  1  0  0  0  0
 30 31  2  0  0  0  0
 14 15  1  0  0  0  0
 30 32  2  0  0  0  0
M  END
> <#>
243

> <PLATE>
LAT004

> <ROW>
C

> <COL>
2

> <COORD>
C02

> <LATID>
LAT004C02

> <Supplier>
Sigma

> <Suplier_CAT#>
L 2411

> <Name>
LY-367,265

> <Concentration_(mM)>
2.5

> <IC50_(µM)>
9.4

> <Yeast_Active?>
-

> <Pubchem_CID>
460500

> <Description>
Inhibits serotonin reuptake; 5-HT2A serotonin receptor antagonist


$$$$
