
  -ISIS-  08130814242D

 23 24  0  0  0  0  0  0  0  0999 V2000
    9.1042   -6.9542    0.0000 C   0  0  0  0  0  0  0  0  0  0  0  0
    9.1042   -6.2042    0.0000 C   0  0  0  0  0  0  0  0  0  0  0  0
    8.4625   -7.3375    0.0000 C   0  0  0  0  0  0  0  0  0  0  0  0
    7.8125   -6.9625    0.0000 C   0  0  0  0  0  0  0  0  0  0  0  0
    7.8125   -6.2125    0.0000 C   0  0  0  0  0  0  0  0  0  0  0  0
    8.4625   -5.8375    0.0000 C   0  0  0  0  0  0  0  0  0  0  0  0
    9.8167   -7.1875    0.0000 C   0  0  0  0  0  0  0  0  0  0  0  0
   10.2542   -6.5917    0.0000 O   0  0  0  0  0  0  0  0  0  0  0  0
    9.8167   -5.9792    0.0000 C   0  0  0  0  0  0  0  0  0  0  0  0
    7.1542   -7.3375    0.0000 C   0  0  0  0  0  0  0  0  0  0  0  0
    6.5042   -6.9625    0.0000 C   0  0  0  0  0  0  0  0  0  0  0  0
    3.9042   -6.9625    0.0000 C   0  0  0  0  0  0  0  0  0  0  0  0
   10.0542   -7.9042    0.0000 O   0  0  0  0  0  0  0  0  0  0  0  0
    5.8542   -7.3417    0.0000 C   0  0  0  0  0  0  0  0  0  0  0  0
    3.9042   -6.2125    0.0000 O   0  0  0  0  0  0  0  0  0  0  0  0
    8.4625   -8.0875    0.0000 O   0  0  0  0  0  0  0  0  0  0  0  0
    7.1542   -5.8292    0.0000 O   0  0  0  0  0  0  0  0  0  0  0  0
    4.5542   -7.3417    0.0000 C   0  0  0  0  0  0  0  0  0  0  0  0
    5.2042   -6.9625    0.0000 C   0  0  0  0  0  0  0  0  0  0  0  0
    3.2625   -7.3417    0.0000 O   0  0  0  0  0  0  0  0  0  0  0  0
    8.4625   -5.0792    0.0000 C   0  0  0  0  0  0  0  0  0  0  0  0
    5.8542   -8.0875    0.0000 C   0  0  0  0  0  0  0  0  0  0  0  0
    6.5042   -6.2042    0.0000 C   0  0  0  0  0  0  0  0  0  0  0  0
  2  1  2  0  0  0  0
  3  1  1  0  0  0  0
  4  3  2  0  0  0  0
  5  4  1  0  0  0  0
  6  2  1  0  0  0  0
  7  1  1  0  0  0  0
  8  7  1  0  0  0  0
  9  2  1  0  0  0  0
 10  4  1  0  0  0  0
 11 10  1  0  0  0  0
 12 18  1  0  0  0  0
 13  7  2  0  0  0  0
 14 11  2  0  0  0  0
 15 12  2  0  0  0  0
 16  3  1  0  0  0  0
 17  5  1  0  0  0  0
 18 19  1  0  0  0  0
 19 14  1  0  0  0  0
 20 12  1  0  0  0  0
 21  6  1  0  0  0  0
 22 14  1  0  0  0  0
 23 17  1  0  0  0  0
  8  9  1  0  0  0  0
  6  5  2  0  0  0  0
M  END
> <#>
163

> <PLATE>
LAT003

> <ROW>
C

> <COL>
2

> <COORD>
C02

> <LATID>
LAT003C02

> <Supplier>
Microsource

> <Suplier_CAT#>
01500674

> <Name>
Mycophenolic Acid

> <Concentration_(mM)>
2.5

> <IC50_(µM)>
1.9

> <Yeast_Active?>
-

> <Pubchem_CID>
4272

> <Description>
Antineoplastic

> <Source>
Natural Product; ex Penicillium brevicompactum and other Penicillium spp

$$$$
