
  -ISIS-  08130814242D

 24 25  0  0  0  0  0  0  0  0999 V2000
    6.5292   -1.3542    0.0000 C   0  0  3  0  0  0  0  0  0  0  0  0
    5.8792   -1.7292    0.0000 C   0  0  0  0  0  0  0  0  0  0  0  0
    1.9792   -1.7292    0.0000 C   0  0  0  0  0  0  0  0  0  0  0  0
    3.2792   -1.7292    0.0000 N   0  0  0  0  0  0  0  0  0  0  0  0
    2.6292   -1.3542    0.0000 N   0  0  0  0  0  0  0  0  0  0  0  0
    5.2292   -1.3542    0.0000 C   0  0  0  0  0  0  0  0  0  0  0  0
    1.9792   -2.4875    0.0000 O   0  0  0  0  0  0  0  0  0  0  0  0
    7.1292   -1.0167    0.0000 F   0  0  0  0  0  0  0  0  0  0  0  0
    7.2542   -1.6375    0.0000 F   0  0  0  0  0  0  0  0  0  0  0  0
    6.6542   -0.5792    0.0000 F   0  0  0  0  0  0  0  0  0  0  0  0
    0.6667   -1.7292    0.0000 S   0  0  0  0  0  0  0  0  0  0  0  0
    3.9292   -1.3542    0.0000 C   0  0  0  0  0  0  0  0  0  0  0  0
    4.5792   -1.7292    0.0000 C   0  0  0  0  0  0  0  0  0  0  0  0
    1.3167   -1.3542    0.0000 C   0  0  0  0  0  0  0  0  0  0  0  0
   -0.6333   -1.7292    0.0000 C   0  0  0  0  0  0  0  0  0  0  0  0
    5.8792   -2.4792    0.0000 C   0  0  0  0  0  0  0  0  0  0  0  0
    5.2292   -2.8542    0.0000 C   0  0  0  0  0  0  0  0  0  0  0  0
    0.0167   -1.3542    0.0000 C   0  0  0  0  0  0  0  0  0  0  0  0
    4.5792   -2.4792    0.0000 C   0  0  0  0  0  0  0  0  0  0  0  0
   -0.6333   -2.4875    0.0000 C   0  0  0  0  0  0  0  0  0  0  0  0
   -1.2833   -1.3500    0.0000 C   0  0  0  0  0  0  0  0  0  0  0  0
   -1.2833   -2.8542    0.0000 C   0  0  0  0  0  0  0  0  0  0  0  0
   -1.9333   -1.7292    0.0000 C   0  0  0  0  0  0  0  0  0  0  0  0
   -1.9333   -2.4875    0.0000 C   0  0  0  0  0  0  0  0  0  0  0  0
  2  1  1  0  0  0  0
  3  5  1  0  0  0  0
  4 12  2  0  0  0  0
  5  4  1  0  0  0  0
  6  2  1  0  0  0  0
  7  3  2  0  0  0  0
  8  1  1  0  0  0  0
  9  1  1  0  0  0  0
 10  1  1  0  0  0  0
 11 14  1  0  0  0  0
 12 13  1  0  0  0  0
 13  6  2  0  0  0  0
 14  3  1  0  0  0  0
 15 18  1  0  0  0  0
 16  2  2  0  0  0  0
 17 16  1  0  0  0  0
 18 11  1  0  0  0  0
 19 17  2  0  0  0  0
 20 15  2  0  0  0  0
 21 15  1  0  0  0  0
 22 20  1  0  0  0  0
 23 21  2  0  0  0  0
 24 23  1  0  0  0  0
 19 13  1  0  0  0  0
 24 22  2  0  0  0  0
M  END
> <#>
1996

> <PLATE>
LAT025

> <ROW>
D

> <COL>
11

> <COORD>
D11

> <LATID>
LAT025D11

> <Supplier>
Chembridge

> <Suplier_CAT#>
5547802

> <Sec_Name>
164_H03

> <Concentration_(mM)>
2.5

> <IC50_(µM)>
>100

> <Yeast_Active?>
-

> <Pubchem_CID>
1356970

$$$$
