
  -ISIS-  08130814242D

 14 14  0  0  0  0  0  0  0  0999 V2000
    8.3123   -2.7153    0.0000 N   0  0  3  0  0  0  0  0  0  0  0  0
    8.3123   -3.6076    0.0000 C   0  0  0  0  0  0  0  0  0  0  0  0
    9.0851   -4.0538    0.0000 O   0  0  0  0  0  0  0  0  0  0  0  0
    7.5396   -4.0538    0.0000 N   0  0  0  0  0  0  0  0  0  0  0  0
    7.5396   -2.2691    0.0000 C   0  0  0  0  0  0  0  0  0  0  0  0
    9.0851   -2.2691    0.0000 C   0  0  0  0  0  0  0  0  0  0  0  0
    6.7668   -3.6076    0.0000 C   0  0  0  0  0  0  0  0  0  0  0  0
    5.9940   -4.0538    0.0000 C   0  0  0  0  0  0  0  0  0  0  0  0
    5.2213   -3.6076    0.0000 C   0  0  0  0  0  0  0  0  0  0  0  0
    5.2213   -2.7153    0.0000 C   0  0  0  0  0  0  0  0  0  0  0  0
    5.9940   -2.2691    0.0000 C   0  0  0  0  0  0  0  0  0  0  0  0
    6.7668   -2.7153    0.0000 C   0  0  0  0  0  0  0  0  0  0  0  0
    4.4485   -2.2691    0.0000 Cl  0  0  0  0  0  0  0  0  0  0  0  0
    4.4485   -4.0538    0.0000 Cl  0  0  0  0  0  0  0  0  0  0  0  0
  1  2  1  0  0  0  0
  2  3  2  0  0  0  0
  2  4  1  0  0  0  0
  1  5  1  0  0  0  0
  1  6  1  0  0  0  0
  7  8  1  0  0  0  0
  8  9  2  0  0  0  0
  9 10  1  0  0  0  0
 10 11  2  0  0  0  0
 11 12  1  0  0  0  0
  7 12  2  0  0  0  0
 10 13  1  0  0  0  0
  9 14  1  0  0  0  0
  4  7  1  0  0  0  0
M  END
> <#>
513

> <PLATE>
LAT007

> <ROW>
A

> <COL>
6

> <COORD>
A06

> <LATID>
LAT007A06

> <Supplier>
Sigma

> <Suplier_CAT#>
D-7763

> <Name>
3-(3,4-Dichlorophenyl)-1,1-Dimethylurea

> <Concentration_(mM)>
2.5

> <IC50_(µM)>
>100

> <Yeast_Active?>
-

> <Pubchem_CID>
3120

$$$$
