
  -ISIS-  08130814242D

 92 97  0  0  0  0  0  0  0  0999 V2000
    9.4250   -3.5125    0.0000 N   0  0  3  0  0  0  0  0  0  0  0  0
    9.4167   -2.4292    0.0000 C   0  0  0  0  0  0  0  0  0  0  0  0
    2.8917   -0.6542    0.0000 N   0  0  0  0  0  0  0  0  0  0  0  0
    8.6500   -4.7500    0.0000 C   0  0  0  0  0  0  0  0  0  0  0  0
    5.0167   -0.2500    0.0000 C   0  0  0  0  0  0  0  0  0  0  0  0
   10.0542   -1.0292    0.0000 N   0  0  0  0  0  0  0  0  0  0  0  0
    8.6167   -5.8667    0.0000 N   0  0  0  0  0  0  0  0  0  0  0  0
    2.9542   -7.2792    0.0000 N   0  0  0  0  0  0  0  0  0  0  0  0
    5.4542   -6.5875    0.0000 N   0  0  0  0  0  0  0  0  0  0  0  0
    8.3500    1.4458    0.0000 N   0  0  0  0  0  0  0  0  0  0  0  0
    0.6792   -2.8667    0.0000 N   0  0  0  0  0  0  0  0  0  0  0  0
    6.1042    0.1583    0.0000 N   0  0  0  0  0  0  0  0  0  0  0  0
    2.3292   -1.5625    0.0000 C   0  0  0  0  0  0  0  0  0  0  0  0
   10.0542   -1.8542    0.0000 C   0  0  3  0  0  0  0  0  0  0  0  0
    1.1792   -5.3667    0.0000 N   0  0  0  0  0  0  0  0  0  0  0  0
    1.1792   -6.7792    0.0000 C   0  0  0  0  0  0  0  0  0  0  0  0
    9.2625   -0.2167    0.0000 C   0  0  0  0  0  0  0  0  0  0  0  0
    7.0125   -6.5917    0.0000 C   0  0  0  0  0  0  0  0  0  0  0  0
    3.8292   -6.8417    0.0000 C   0  0  0  0  0  0  0  0  0  0  0  0
   -0.0833   -3.9167    0.0000 C   0  0  0  0  0  0  0  0  0  0  0  0
    7.3875    1.4375    0.0000 C   0  0  0  0  0  0  0  0  0  0  0  0
    9.3542   -4.3167    0.0000 C   0  0  3  0  0  0  0  0  0  0  0  0
    3.7375   -0.0917    0.0000 C   0  0  3  0  0  0  0  0  0  0  0  0
    1.9917   -7.2792    0.0000 C   0  0  3  0  0  0  0  0  0  0  0  0
    1.0167   -1.7792    0.0000 C   0  0  3  0  0  0  0  0  0  0  0  0
    8.0292   -6.6000    0.0000 C   0  0  3  0  0  0  0  0  0  0  0  0
    4.6417   -7.3042    0.0000 C   0  0  3  0  0  0  0  0  0  0  0  0
    9.2625    0.7500    0.0000 C   0  0  3  0  0  0  0  0  0  0  0  0
    1.6417   -7.9625    0.0000 C   0  0  0  0  0  0  0  0  0  0  0  0
   -0.0708   -4.9667    0.0000 C   0  0  3  0  0  0  0  0  0  0  0  0
    6.4792    0.9333    0.0000 C   0  0  3  0  0  0  0  0  0  0  0  0
    2.3917   -8.6792    0.0000 C   0  0  0  0  0  0  0  0  0  0  0  0
    8.7292   -2.1792    0.0000 O   0  0  0  0  0  0  0  0  0  0  0  0
   -2.1625   -6.4667    0.0000 C   0  0  0  0  0  0  0  0  0  0  0  0
    7.8542   -4.4000    0.0000 O   0  0  0  0  0  0  0  0  0  0  0  0
    5.0167   -0.8417    0.0000 O   0  0  0  0  0  0  0  0  0  0  0  0
   10.6917   -2.4042    0.0000 C   0  0  0  0  0  0  0  0  0  0  0  0
    2.9250   -2.0292    0.0000 O   0  0  0  0  0  0  0  0  0  0  0  0
    6.9792   -5.7792    0.0000 O   0  0  0  0  0  0  0  0  0  0  0  0
    0.4542   -7.1792    0.0000 O   0  0  0  0  0  0  0  0  0  0  0  0
    8.5125   -0.5000    0.0000 O   0  0  0  0  0  0  0  0  0  0  0  0
    3.8292   -6.0542    0.0000 O   0  0  0  0  0  0  0  0  0  0  0  0
    7.3875    2.3750    0.0000 O   0  0  0  0  0  0  0  0  0  0  0  0
   -0.7250   -3.9042    0.0000 O   0  0  0  0  0  0  0  0  0  0  0  0
    0.4500   -1.1042    0.0000 C   0  0  0  0  0  0  0  0  0  0  0  0
    8.6667   -7.2417    0.0000 C   0  0  0  0  0  0  0  0  0  0  0  0
    4.6417   -8.1167    0.0000 C   0  0  0  0  0  0  0  0  0  0  0  0
   10.1292    0.7208    0.0000 C   0  0  0  0  0  0  0  0  0  0  0  0
    3.0792   -8.6792    0.0000 O   0  0  0  0  0  0  0  0  0  0  0  0
   -2.1625   -7.1792    0.0000 O   0  0  0  0  0  0  0  0  0  0  0  0
   -0.4750   -5.8042    0.0000 C   0  0  0  0  0  0  0  0  0  0  0  0
   10.2292   -3.3292    0.0000 C   0  0  0  0  0  0  0  0  0  0  0  0
    3.6417    0.5958    0.0000 C   0  0  3  0  0  0  0  0  0  0  0  0
   -1.8125   -5.8042    0.0000 C   0  0  0  0  0  0  0  0  0  0  0  0
   -0.2708   -1.5167    0.0000 C   0  0  0  0  0  0  0  0  0  0  0  0
   -1.6875   -2.3417    0.0000 C   0  0  0  0  0  0  0  0  0  0  0  0
    1.7417   -9.2417    0.0000 O   0  0  0  0  0  0  0  0  0  0  0  0
   -3.1958   -6.4667    0.0000 O   0  0  0  0  0  0  0  0  0  0  0  0
   11.4125   -1.9792    0.0000 C   0  0  0  0  0  0  0  0  0  0  0  0
    9.3792   -6.8167    0.0000 C   0  0  0  0  0  0  0  0  0  0  0  0
    5.1542   -8.3917    0.0000 C   0  0  0  0  0  0  0  0  0  0  0  0
   -0.9750   -1.1042    0.0000 C   0  0  0  0  0  0  0  0  0  0  0  0
   -0.2708   -2.3500    0.0000 C   0  0  0  0  0  0  0  0  0  0  0  0
    3.9250    2.2208    0.0000 N   0  0  0  0  0  0  0  0  0  0  0  0
   -0.9750   -2.7542    0.0000 C   0  0  0  0  0  0  0  0  0  0  0  0
   -1.6875   -1.5167    0.0000 C   0  0  0  0  0  0  0  0  0  0  0  0
   10.1125   -4.6542    0.0000 C   0  0  0  0  0  0  0  0  0  0  0  0
   -2.4000   -2.7542    0.0000 O   0  0  0  0  0  0  0  0  0  0  0  0
   10.6417   -4.0500    0.0000 C   0  0  0  0  0  0  0  0  0  0  0  0
    5.9792    1.6583    0.0000 C   0  0  0  0  0  0  0  0  0  0  0  0
   10.9167    1.1208    0.0000 C   0  0  3  0  0  0  0  0  0  0  0  0
    4.6292    2.1958    0.0000 C   0  0  0  0  0  0  0  0  0  0  0  0
    2.8292    0.7500    0.0000 C   0  0  0  0  0  0  0  0  0  0  0  0
    4.0792    1.2208    0.0000 C   0  0  0  0  0  0  0  0  0  0  0  0
   12.1292   -2.4042    0.0000 C   0  0  0  0  0  0  0  0  0  0  0  0
   11.4125   -1.1542    0.0000 C   0  0  0  0  0  0  0  0  0  0  0  0
    5.1542   -9.2250    0.0000 C   0  0  0  0  0  0  0  0  0  0  0  0
    5.8750   -7.9750    0.0000 C   0  0  0  0  0  0  0  0  0  0  0  0
    9.3792   -5.9917    0.0000 C   0  0  0  0  0  0  0  0  0  0  0  0
   10.1000   -7.2417    0.0000 C   0  0  0  0  0  0  0  0  0  0  0  0
    5.1542    1.5583    0.0000 C   0  0  0  0  0  0  0  0  0  0  0  0
   11.0125    1.9333    0.0000 C   0  0  0  0  0  0  0  0  0  0  0  0
   11.6667    0.7833    0.0000 C   0  0  0  0  0  0  0  0  0  0  0  0
   10.8250   -6.8167    0.0000 C   0  0  0  0  0  0  0  0  0  0  0  0
    5.8750   -9.6417    0.0000 C   0  0  0  0  0  0  0  0  0  0  0  0
    6.6000   -8.3917    0.0000 C   0  0  0  0  0  0  0  0  0  0  0  0
   12.8542   -1.9792    0.0000 C   0  0  0  0  0  0  0  0  0  0  0  0
   12.1292   -0.7375    0.0000 C   0  0  0  0  0  0  0  0  0  0  0  0
   10.1000   -5.5750    0.0000 C   0  0  0  0  0  0  0  0  0  0  0  0
   10.8250   -5.9917    0.0000 C   0  0  0  0  0  0  0  0  0  0  0  0
    6.6000   -9.2250    0.0000 C   0  0  0  0  0  0  0  0  0  0  0  0
   12.8542   -1.1542    0.0000 C   0  0  0  0  0  0  0  0  0  0  0  0
  2  1  1  0  0  0  0
  3 23  1  0  0  0  0
  4 22  1  0  0  0  0
  5 12  1  0  0  0  0
  6 14  1  0  0  0  0
  7  4  1  0  0  0  0
  8 19  1  0  0  0  0
  9 18  1  0  0  0  0
 10 28  1  0  0  0  0
 11 20  1  0  0  0  0
 12 31  1  0  0  0  0
 13  3  1  0  0  0  0
 14  2  1  0  0  0  0
 15 16  1  0  0  0  0
 16 24  1  0  0  0  0
 17  6  1  0  0  0  0
 18 26  1  0  0  0  0
 19 27  1  0  0  0  0
 20 30  1  0  0  0  0
 21 10  1  0  0  0  0
 22  1  1  0  0  0  0
 23  5  1  0  0  0  0
 24  8  1  0  0  0  0
 25 13  1  0  0  0  0
 26  7  1  0  0  0  0
 27  9  1  0  0  0  0
 28 17  1  0  0  0  0
 29 24  1  0  0  0  0
 30 15  1  0  0  0  0
 31 21  1  0  0  0  0
 32 29  1  0  0  0  0
 33  2  2  0  0  0  0
 34 54  1  0  0  0  0
 35  4  2  0  0  0  0
 36  5  2  0  0  0  0
 37 14  1  0  0  0  0
 38 13  2  0  0  0  0
 39 18  2  0  0  0  0
 40 16  2  0  0  0  0
 41 17  2  0  0  0  0
 42 19  2  0  0  0  0
 43 21  2  0  0  0  0
 44 20  2  0  0  0  0
 45 25  1  0  0  0  0
 46 26  1  0  0  0  0
 47 27  1  0  0  0  0
 48 28  1  0  0  0  0
 49 32  2  0  0  0  0
 50 34  2  0  0  0  0
 51 30  1  0  0  0  0
 52  1  1  0  0  0  0
 53 23  1  0  0  0  0
 54 51  1  0  0  0  0
 55 45  1  0  0  0  0
 56 65  1  0  0  0  0
 57 32  1  0  0  0  0
 58 34  1  0  0  0  0
 59 37  1  0  0  0  0
 60 46  1  0  0  0  0
 61 47  1  0  0  0  0
 62 55  2  0  0  0  0
 63 55  1  0  0  0  0
 64 72  1  0  0  0  0
 65 63  2  0  0  0  0
 66 62  1  0  0  0  0
 67 22  1  0  0  0  0
 68 56  1  0  0  0  0
 69 52  1  0  0  0  0
 70 31  1  0  0  0  0
 71 48  1  0  0  0  0
 72 81  1  0  0  0  0
 73 53  1  0  0  0  0
 74 53  1  0  0  0  0
 75 59  2  0  0  0  0
 76 59  1  0  0  0  0
 77 61  1  0  0  0  0
 78 61  2  0  0  0  0
 79 60  1  0  0  0  0
 80 60  2  0  0  0  0
 81 70  1  0  0  0  0
 82 71  1  0  0  0  0
 83 71  1  0  0  0  0
 84 80  1  0  0  0  0
 85 77  2  0  0  0  0
 86 78  1  0  0  0  0
 87 75  1  0  0  0  0
 88 76  2  0  0  0  0
 89 79  2  0  0  0  0
 90 84  2  0  0  0  0
 91 86  2  0  0  0  0
 92 88  1  0  0  0  0
 67 69  1  0  0  0  0
 87 92  2  0  0  0  0
 89 90  1  0  0  0  0
 85 91  1  0  0  0  0
 25 11  1  0  0  0  0
 66 56  2  0  0  0  0
M  END
> <#>
157

> <PLATE>
LAT002

> <ROW>
E

> <COL>
11

> <COORD>
E11

> <LATID>
LAT002E11

> <Supplier>
Microsource

> <Suplier_CAT#>
01500603

> <Name>
Tyrothricin

> <Concentration_(mM)>
2.5

> <IC50_(µM)>
74

> <Yeast_Active?>
+

> <Pubchem_CID>
452550

> <Description>
Topical Antibacterial (Topical)

$$$$
