
  -ISIS-  08130814242D

 26 30  0  0  0  0  0  0  0  0999 V2000
    7.5208   -3.4083    0.0000 C   0  0  0  0  0  0  0  0  0  0  0  0
    7.5208   -4.2375    0.0000 C   0  0  0  0  0  0  0  0  0  0  0  0
    8.2349   -4.6498    0.0000 C   0  0  0  0  0  0  0  0  0  0  0  0
    8.9536   -4.2375    0.0000 O   0  0  0  0  0  0  0  0  0  0  0  0
    8.9536   -3.4083    0.0000 C   0  0  0  0  0  0  0  0  0  0  0  0
    8.2349   -2.9915    0.0000 C   0  0  2  0  0  0  0  0  0  0  0  0
    6.0917   -3.4083    0.0000 C   0  0  0  0  0  0  0  0  0  0  0  0
    6.0917   -4.2375    0.0000 N   0  0  3  0  0  0  0  0  0  0  0  0
    6.8058   -4.6498    0.0000 C   0  0  0  0  0  0  0  0  0  0  0  0
    6.8058   -2.9915    0.0000 C   0  0  0  0  0  0  0  0  0  0  0  0
    4.6583   -3.4083    0.0000 C   0  0  0  0  0  0  0  0  0  0  0  0
    4.6583   -4.2375    0.0000 C   0  0  0  0  0  0  0  0  0  0  0  0
    5.3764   -4.6521    0.0000 C   0  0  0  0  0  0  0  0  0  0  0  0
    3.2319   -3.4125    0.0000 C   0  0  0  0  0  0  0  0  0  0  0  0
    3.2307   -4.2398    0.0000 C   0  0  0  0  0  0  0  0  0  0  0  0
    3.9456   -4.6527    0.0000 C   0  0  0  0  0  0  0  0  0  0  0  0
    3.9438   -2.9997    0.0000 N   0  0  0  0  0  0  0  0  0  0  0  0
    1.8027   -3.4125    0.0000 C   0  0  0  0  0  0  0  0  0  0  0  0
    1.8016   -4.2398    0.0000 C   0  0  0  0  0  0  0  0  0  0  0  0
    2.5164   -4.6527    0.0000 C   0  0  0  0  0  0  0  0  0  0  0  0
    2.5146   -2.9997    0.0000 C   0  0  0  0  0  0  0  0  0  0  0  0
    6.8000   -5.4708    0.0000 O   0  0  0  0  0  0  0  0  0  0  0  0
    9.6625   -2.9917    0.0000 O   0  0  0  0  0  0  0  0  0  0  0  0
    8.8167   -2.4000    0.0000 C   0  0  0  0  0  0  0  0  0  0  0  0
    7.6458   -2.4000    0.0000 O   0  0  0  0  0  0  0  0  0  0  0  0
    8.8125   -1.5750    0.0000 C   0  0  0  0  0  0  0  0  0  0  0  0
 12 13  1  0  0  0  0
 13  8  1  0  0  0  0
 11  7  1  0  0  0  0
  7  8  1  0  0  0  0
 14 15  1  0  0  0  0
  1  2  2  0  0  0  0
 15 16  1  0  0  0  0
 16 12  2  0  0  0  0
  1  6  1  0  0  0  0
 11 17  2  0  0  0  0
 17 14  1  0  0  0  0
  2  3  1  0  0  0  0
  7 10  2  0  0  0  0
 18 19  2  0  0  0  0
  8  9  1  0  0  0  0
 19 20  1  0  0  0  0
 20 15  2  0  0  0  0
  9  2  1  0  0  0  0
 14 21  2  0  0  0  0
 21 18  1  0  0  0  0
  1 10  1  0  0  0  0
  9 22  2  0  0  0  0
 11 12  1  0  0  0  0
  5 23  2  0  0  0  0
  3  4  1  0  0  0  0
  6 24  1  1  0  0  0
  4  5  1  0  0  0  0
  6 25  1  6  0  0  0
  5  6  1  0  0  0  0
 24 26  1  0  0  0  0
M  END
> <#>
219

> <PLATE>
LAT003

> <ROW>
C

> <COL>
9

> <COORD>
C09

> <LATID>
LAT003C09

> <Supplier>
Sigma

> <Suplier_CAT#>
C 9911

> <Name>
(S)-(+)-Camptothecin

> <Concentration_(mM)>
2.5

> <IC50_(µM)>
0.46

> <Yeast_Active?>
-

> <Pubchem_CID>
2538

> <Description>
DNA topoisomerase I inhibitor

$$$$
