
  -ISIS-  08130814242D

 16 16  0  0  0  0  0  0  0  0999 V2000
   -2.8625    1.4208    0.0000 C   0  0  0  0  0  0  0  0  0  0  0  0
   -4.1458    1.4208    0.0000 C   0  0  3  0  0  0  0  0  0  0  0  0
   -3.5000    1.0458    0.0000 C   0  0  0  0  0  0  0  0  0  0  0  0
   -2.2208    1.0458    0.0000 C   0  0  0  0  0  0  0  0  0  0  0  0
   -1.5625    1.4208    0.0000 C   0  0  0  0  0  0  0  0  0  0  0  0
   -0.9208    1.0458    0.0000 C   0  0  0  0  0  0  0  0  0  0  0  0
   -2.2208    0.3000    0.0000 O   0  0  0  0  0  0  0  0  0  0  0  0
   -3.7625    2.0625    0.0000 Cl  0  0  0  0  0  0  0  0  0  0  0  0
   -4.5000    0.7833    0.0000 Cl  0  0  0  0  0  0  0  0  0  0  0  0
   -4.7833    1.7833    0.0000 Cl  0  0  0  0  0  0  0  0  0  0  0  0
   -3.5000    0.3208    0.0000 N   0  0  0  0  0  0  0  0  0  0  0  0
   -0.9208    0.3000    0.0000 O   0  0  0  0  0  0  0  0  0  0  0  0
   -1.5625    2.1458    0.0000 C   0  0  0  0  0  0  0  0  0  0  0  0
   -0.2833    1.4208    0.0000 C   0  0  0  0  0  0  0  0  0  0  0  0
   -0.9208    2.5208    0.0000 C   0  0  0  0  0  0  0  0  0  0  0  0
   -0.2833    2.1458    0.0000 C   0  0  0  0  0  0  0  0  0  0  0  0
  2  3  1  0  0  0  0
  3  1  2  0  0  0  0
  4  1  1  0  0  0  0
  5  4  1  0  0  0  0
  6  5  2  0  0  0  0
  7  4  2  0  0  0  0
  8  2  1  0  0  0  0
  9  2  1  0  0  0  0
 10  2  1  0  0  0  0
 11  3  1  0  0  0  0
 12  6  1  0  0  0  0
 13  5  1  0  0  0  0
 14  6  1  0  0  0  0
 15 13  2  0  0  0  0
 16 15  1  0  0  0  0
 14 16  2  0  0  0  0
M  END
> <#>
1122

> <PLATE>
LAT015

> <ROW>
B

> <COL>
2

> <COORD>
B02

> <LATID>
LAT015B02

> <Supplier>
Chembridge

> <Suplier_CAT#>
5192710

> <Name>
Novel

> <Concentration_(mM)>
2.5

> <IC50_(µM)>
19

> <Yeast_Active?>
+

> <Pubchem_CID>
788049

$$$$
