
  -ISIS-  08130814242D

 20 20  0  0  0  0  0  0  0  0999 V2000
    6.1000   -2.5750    0.0000 C   0  0  0  0  0  0  0  0  0  0  0  0
    5.3833   -3.8167    0.0000 N   0  0  0  0  0  0  0  0  0  0  0  0
    5.3833   -2.1625    0.0000 N   0  0  0  0  0  0  0  0  0  0  0  0
    4.6708   -3.4042    0.0000 C   0  0  0  0  0  0  0  0  0  0  0  0
    7.5250   -2.5667    0.0000 N   0  0  0  0  0  0  0  0  0  0  0  0
    6.8125   -2.1625    0.0000 C   0  0  0  0  0  0  0  0  0  0  0  0
    6.1000   -3.4042    0.0000 C   0  0  0  0  0  0  0  0  0  0  0  0
    4.6708   -2.5750    0.0000 C   0  0  0  0  0  0  0  0  0  0  0  0
    8.2375   -2.1542    0.0000 C   0  0  0  0  0  0  0  0  0  0  0  0
    3.9542   -3.8167    0.0000 N   0  0  3  0  0  0  0  0  0  0  0  0
    6.8083   -1.3375    0.0000 O   0  0  0  0  0  0  0  0  0  0  0  0
    3.9542   -4.6417    0.0000 C   0  0  0  0  0  0  0  0  0  0  0  0
    6.8167   -3.8167    0.0000 N   0  0  0  0  0  0  0  0  0  0  0  0
    3.9583   -2.1667    0.0000 Cl  0  0  0  0  0  0  0  0  0  0  0  0
    8.2333   -1.3292    0.0000 N   0  0  0  0  0  0  0  0  0  0  0  0
    8.9500   -2.5667    0.0000 N   0  0  0  0  0  0  0  0  0  0  0  0
    3.2417   -3.4042    0.0000 C   0  0  0  0  0  0  0  0  0  0  0  0
    3.2417   -5.0542    0.0000 C   0  0  3  0  0  0  0  0  0  0  0  0
    2.5250   -4.6417    0.0000 C   0  0  0  0  0  0  0  0  0  0  0  0
    3.2375   -5.8792    0.0000 C   0  0  0  0  0  0  0  0  0  0  0  0
  2  7  2  0  0  0  0
  3  1  2  0  0  0  0
  4  2  1  0  0  0  0
  5  6  1  0  0  0  0
  6  1  1  0  0  0  0
  7  1  1  0  0  0  0
  8  3  1  0  0  0  0
  9  5  2  0  0  0  0
 10  4  1  0  0  0  0
 11  6  2  0  0  0  0
 12 10  1  0  0  0  0
 13  7  1  0  0  0  0
 14  8  1  0  0  0  0
 15  9  1  0  0  0  0
 16  9  1  0  0  0  0
 17 10  1  0  0  0  0
 18 12  1  0  0  0  0
 19 18  1  0  0  0  0
 20 18  1  0  0  0  0
  8  4  2  0  0  0  0
M  END
> <#>
196

> <PLATE>
LAT003

> <ROW>
D

> <COL>
6

> <COORD>
D06

> <LATID>
LAT003D06

> <Supplier>
Sigma

> <Suplier_CAT#>
A 5585

> <Name>
5-(N-Methyl-N-Isobutyl)Amiloride

> <Concentration_(mM)>
2.5

> <IC50_(µM)>
29

> <Yeast_Active?>
-

> <Pubchem_CID>
73314

> <Description>
Na+/H+ Antiport Inhibitor

$$$$
