
  -ISIS-  08130814242D

 21 23  0  0  0  0  0  0  0  0999 V2000
    1.4042   -4.1000    0.0000 C   0  0  3  0  0  0  0  0  0  0  0  0
    1.0292   -4.7375    0.0000 C   0  0  3  0  0  0  0  0  0  0  0  0
    0.6542   -4.1000    0.0000 C   0  0  3  0  0  0  0  0  0  0  0  0
    2.0500   -4.4667    0.0000 C   0  0  0  0  0  0  0  0  0  0  0  0
    2.7000   -4.0875    0.0000 N   0  0  0  0  0  0  0  0  0  0  0  0
    0.6500   -5.3000    0.0000 Cl  0  0  0  0  0  0  0  0  0  0  0  0
    1.4000   -5.3000    0.0000 Cl  0  0  0  0  0  0  0  0  0  0  0  0
    0.1167   -3.5542    0.0000 C   0  0  0  0  0  0  0  0  0  0  0  0
    2.0500   -5.2167    0.0000 O   0  0  0  0  0  0  0  0  0  0  0  0
    3.3375   -4.4667    0.0000 C   0  0  0  0  0  0  0  0  0  0  0  0
    3.9875   -4.0875    0.0000 C   0  0  0  0  0  0  0  0  0  0  0  0
    4.6375   -4.4542    0.0000 C   0  0  0  0  0  0  0  0  0  0  0  0
    5.2875   -4.0792    0.0000 Cl  0  0  0  0  0  0  0  0  0  0  0  0
    4.0000   -5.5875    0.0000 C   0  0  0  0  0  0  0  0  0  0  0  0
    3.3375   -5.2167    0.0000 C   0  0  0  0  0  0  0  0  0  0  0  0
   -0.6208   -3.5792    0.0000 C   0  0  0  0  0  0  0  0  0  0  0  0
    0.5042   -2.9042    0.0000 C   0  0  0  0  0  0  0  0  0  0  0  0
    4.6500   -5.2042    0.0000 C   0  0  0  0  0  0  0  0  0  0  0  0
   -0.9958   -2.9000    0.0000 C   0  0  0  0  0  0  0  0  0  0  0  0
    0.1292   -2.2542    0.0000 C   0  0  0  0  0  0  0  0  0  0  0  0
   -0.6208   -2.2667    0.0000 C   0  0  0  0  0  0  0  0  0  0  0  0
  2  1  1  0  0  0  0
  3  1  1  0  0  0  0
  4  1  1  0  0  0  0
  5  4  1  0  0  0  0
  6  2  1  0  0  0  0
  7  2  1  0  0  0  0
  8  3  1  0  0  0  0
  9  4  2  0  0  0  0
 10  5  1  0  0  0  0
 11 10  2  0  0  0  0
 12 11  1  0  0  0  0
 13 12  1  0  0  0  0
 14 15  2  0  0  0  0
 15 10  1  0  0  0  0
 16  8  2  0  0  0  0
 17  8  1  0  0  0  0
 18 14  1  0  0  0  0
 19 16  1  0  0  0  0
 20 17  2  0  0  0  0
 21 20  1  0  0  0  0
  2  3  1  0  0  0  0
 21 19  2  0  0  0  0
 18 12  2  0  0  0  0
M  END
> <#>
828

> <PLATE>
LAT011

> <ROW>
D

> <COL>
5

> <COORD>
D05

> <LATID>
LAT011D05

> <Supplier>
Chembridge

> <Suplier_CAT#>
5630973

> <Name>
Novel

> <Sec_Name>
192_B04

> <Concentration_(mM)>
2.5

> <IC50_(µM)>
>100

> <Yeast_Active?>
-

> <Pubchem_CID>
2253670

$$$$
