
  -ISIS-  08130814242D

 23 26  0  0  0  0  0  0  0  0999 V2000
    8.1500    1.8958    0.0000 C   0  0  0  0  0  0  0  0  0  0  0  0
    7.4625    2.2083    0.0000 C   0  0  0  0  0  0  0  0  0  0  0  0
    6.9625    1.6458    0.0000 C   0  0  0  0  0  0  0  0  0  0  0  0
    8.0667    1.1500    0.0000 O   0  0  0  0  0  0  0  0  0  0  0  0
    7.3375    0.9958    0.0000 C   0  0  0  0  0  0  0  0  0  0  0  0
    8.8000    2.2708    0.0000 C   0  0  0  0  0  0  0  0  0  0  0  0
    6.2125    1.6458    0.0000 C   0  0  0  0  0  0  0  0  0  0  0  0
    9.4500    1.8958    0.0000 N   0  0  0  0  0  0  0  0  0  0  0  0
   10.7417    1.1458    0.0000 N   0  0  0  0  0  0  0  0  0  0  0  0
    6.9625    0.3458    0.0000 C   0  0  0  0  0  0  0  0  0  0  0  0
    8.8000    3.0208    0.0000 O   0  0  0  0  0  0  0  0  0  0  0  0
    5.8375    0.9958    0.0000 C   0  0  0  0  0  0  0  0  0  0  0  0
    6.2125    0.3458    0.0000 C   0  0  0  0  0  0  0  0  0  0  0  0
   10.1000    2.2708    0.0000 C   0  0  0  0  0  0  0  0  0  0  0  0
   10.7417    1.8958    0.0000 C   0  0  0  0  0  0  0  0  0  0  0  0
    5.8375    2.2958    0.0000 C   0  0  0  0  0  0  0  0  0  0  0  0
   11.3917    0.7708    0.0000 C   0  0  0  0  0  0  0  0  0  0  0  0
    5.0875    0.9958    0.0000 C   0  0  0  0  0  0  0  0  0  0  0  0
   11.3917    2.2708    0.0000 C   0  0  0  0  0  0  0  0  0  0  0  0
    5.0875    2.2958    0.0000 C   0  0  0  0  0  0  0  0  0  0  0  0
   12.0417    1.1458    0.0000 C   0  0  0  0  0  0  0  0  0  0  0  0
    4.7125    1.6458    0.0000 C   0  0  0  0  0  0  0  0  0  0  0  0
   12.0417    1.8958    0.0000 C   0  0  0  0  0  0  0  0  0  0  0  0
  2  1  2  0  0  0  0
  3  2  1  0  0  0  0
  4  1  1  0  0  0  0
  5  4  1  0  0  0  0
  6  1  1  0  0  0  0
  7  3  1  0  0  0  0
  8  6  1  0  0  0  0
  9 15  1  0  0  0  0
 10  5  1  0  0  0  0
 11  6  2  0  0  0  0
 12  7  1  0  0  0  0
 13 10  2  0  0  0  0
 14  8  1  0  0  0  0
 15 14  1  0  0  0  0
 16  7  2  0  0  0  0
 17  9  2  0  0  0  0
 18 12  2  0  0  0  0
 19 15  2  0  0  0  0
 20 16  1  0  0  0  0
 21 23  2  0  0  0  0
 22 20  2  0  0  0  0
 23 19  1  0  0  0  0
  3  5  2  0  0  0  0
 13 12  1  0  0  0  0
 18 22  1  0  0  0  0
 21 17  1  0  0  0  0
M  END
> <#>
1449

> <PLATE>
LAT019

> <ROW>
A

> <COL>
3

> <COORD>
A03

> <LATID>
LAT019A03

> <Supplier>
Chembridge

> <Suplier_CAT#>
9025786

> <Name>
Novel

> <Concentration_(mM)>
2.5

> <IC50_(µM)>
30

> <Yeast_Active?>
-

> <Pubchem_CID>
6460094

$$$$
