
  -ISIS-  08130814242D

 21 24  0  0  0  0  0  0  0  0999 V2000
   -1.2208    0.4208    0.0000 C   0  0  0  0  0  0  0  0  0  0  0  0
   -0.4708    0.8500    0.0000 C   0  0  0  0  0  0  0  0  0  0  0  0
   -1.2208   -0.4500    0.0000 C   0  0  0  0  0  0  0  0  0  0  0  0
   -1.9833    0.8500    0.0000 C   0  0  0  0  0  0  0  0  0  0  0  0
    0.3000    0.4208    0.0000 C   0  0  0  0  0  0  0  0  0  0  0  0
   -0.4708    1.7208    0.0000 N   0  0  0  0  0  0  0  0  0  0  0  0
   -1.9708   -0.8792    0.0000 C   0  0  0  0  0  0  0  0  0  0  0  0
   -1.9833    1.7208    0.0000 O   0  0  0  0  0  0  0  0  0  0  0  0
   -2.7125    0.4208    0.0000 C   0  0  0  0  0  0  0  0  0  0  0  0
   -0.4458   -0.9042    0.0000 C   0  0  0  0  0  0  0  0  0  0  0  0
    0.3042   -0.4500    0.0000 C   0  0  0  0  0  0  0  0  0  0  0  0
   -2.7125   -0.4500    0.0000 C   0  0  0  0  0  0  0  0  0  0  0  0
    1.0667    0.8625    0.0000 C   0  0  0  0  0  0  0  0  0  0  0  0
   -1.9708   -1.7667    0.0000 O   0  0  0  0  0  0  0  0  0  0  0  0
    1.0667    1.7833    0.0000 O   0  0  0  0  0  0  0  0  0  0  0  0
    1.8542    0.4125    0.0000 O   0  0  0  0  0  0  0  0  0  0  0  0
   -3.4708    0.8500    0.0000 C   0  0  0  0  0  0  0  0  0  0  0  0
   -3.4708   -0.8792    0.0000 C   0  0  0  0  0  0  0  0  0  0  0  0
    2.6500    0.8625    0.0000 C   0  0  0  0  0  0  0  0  0  0  0  0
   -4.2208    0.4208    0.0000 C   0  0  0  0  0  0  0  0  0  0  0  0
   -4.2208   -0.4500    0.0000 C   0  0  0  0  0  0  0  0  0  0  0  0
  2  1  1  0  0  0  0
  3  1  1  0  0  0  0
  4  1  2  0  0  0  0
  5  2  1  0  0  0  0
  6  2  2  0  0  0  0
  7  3  1  0  0  0  0
  8  4  1  0  0  0  0
  9  4  1  0  0  0  0
 10  3  2  0  0  0  0
 11 10  1  0  0  0  0
 12  9  2  0  0  0  0
 13  5  1  0  0  0  0
 14  7  2  0  0  0  0
 15 13  2  0  0  0  0
 16 13  1  0  0  0  0
 17  9  1  0  0  0  0
 18 12  1  0  0  0  0
 19 16  1  0  0  0  0
 20 17  2  0  0  0  0
 21 20  1  0  0  0  0
  6  8  1  0  0  0  0
  7 12  1  0  0  0  0
  5 11  2  0  0  0  0
 18 21  2  0  0  0  0
M  END
> <#>
1001

> <PLATE>
LAT013

> <ROW>
A

> <COL>
7

> <COORD>
A07

> <LATID>
LAT013A07

> <Supplier>
Chembridge

> <Suplier_CAT#>
5469499

> <Name>
Novel

> <Sec_Name>
133_C09

> <Concentration_(mM)>
2.5

> <IC50_(µM)>
>100

> <Yeast_Active?>
+

> <Pubchem_CID>
NULL

$$$$
