
  -ISIS-  08130814242D

 30 34  0  0  0  0  0  0  0  0999 V2000
    5.6792   -2.9875    0.0000 N   0  3  0  0  0  0  0  0  0  0  0  0
    7.1167   -3.0042    0.0000 C   0  0  0  0  0  0  0  0  0  0  0  0
    5.6750   -3.8167    0.0000 C   0  0  0  0  0  0  0  0  0  0  0  0
    6.3875   -4.2375    0.0000 C   0  0  0  0  0  0  0  0  0  0  0  0
    4.9625   -4.2292    0.0000 C   0  0  0  0  0  0  0  0  0  0  0  0
    7.1042   -3.8375    0.0000 C   0  0  0  0  0  0  0  0  0  0  0  0
    6.4042   -2.5792    0.0000 C   0  0  0  0  0  0  0  0  0  0  0  0
    7.8417   -2.6000    0.0000 C   0  0  0  0  0  0  0  0  0  0  0  0
    4.2500   -3.8042    0.0000 C   0  0  0  0  0  0  0  0  0  0  0  0
    4.9542   -5.0542    0.0000 C   0  0  0  0  0  0  0  0  0  0  0  0
    3.5292   -4.2167    0.0000 C   0  0  0  0  0  0  0  0  0  0  0  0
    3.5375   -5.0542    0.0000 C   0  0  0  0  0  0  0  0  0  0  0  0
    6.3875   -5.0542    0.0000 C   0  0  0  0  0  0  0  0  0  0  0  0
    4.2500   -5.4542    0.0000 C   0  0  0  0  0  0  0  0  0  0  0  0
    7.8125   -4.2542    0.0000 C   0  0  0  0  0  0  0  0  0  0  0  0
    8.5542   -3.0250    0.0000 C   0  0  0  0  0  0  0  0  0  0  0  0
    8.0250   -1.7917    0.0000 O   0  0  0  0  0  0  0  0  0  0  0  0
    2.7417   -3.9667    0.0000 O   0  0  0  0  0  0  0  0  0  0  0  0
    2.7500   -5.3125    0.0000 O   0  0  0  0  0  0  0  0  0  0  0  0
    9.1792   -2.4792    0.0000 O   0  0  0  0  0  0  0  0  0  0  0  0
    8.8542   -1.7167    0.0000 C   0  0  0  0  0  0  0  0  0  0  0  0
    2.2542   -4.6417    0.0000 C   0  0  0  0  0  0  0  0  0  0  0  0
    5.6667   -5.4667    0.0000 C   0  0  0  0  0  0  0  0  0  0  0  0
    8.5417   -3.8542    0.0000 C   0  0  0  0  0  0  0  0  0  0  0  0
    4.9667   -2.5667    0.0000 C   0  0  0  0  0  0  0  0  0  0  0  0
    3.2792   -1.8542    0.0000 S   0  0  3  0  0  0  0  0  0  0  0  0
    3.2917   -2.4292    0.0000 O   0  5  0  0  0  0  0  0  0  0  0  0
    3.8167   -1.8542    0.0000 O   0  0  0  0  0  0  0  0  0  0  0  0
    2.7417   -1.8542    0.0000 O   0  0  0  0  0  0  0  0  0  0  0  0
    3.2667   -1.2792    0.0000 O   0  0  0  0  0  0  0  0  0  0  0  0
  8  2  1  0  0  0  0
  9  5  2  0  0  0  0
 10  5  1  0  0  0  0
 11  9  1  0  0  0  0
 12 14  1  0  0  0  0
 13  4  1  0  0  0  0
 14 10  2  0  0  0  0
 15  6  1  0  0  0  0
 16  8  2  0  0  0  0
 17  8  1  0  0  0  0
 18 11  1  0  0  0  0
 19 12  1  0  0  0  0
 20 16  1  0  0  0  0
 21 17  1  0  0  0  0
 22 18  1  0  0  0  0
 23 13  2  0  0  0  0
 24 15  2  0  0  0  0
 25  1  1  0  0  0  0
  2  6  1  0  0  0  0
 10 23  1  0  0  0  0
 16 24  1  0  0  0  0
 11 12  2  0  0  0  0
 21 20  1  0  0  0  0
 19 22  1  0  0  0  0
  2  7  2  0  0  0  0
  3  1  2  0  0  0  0
  4  3  1  0  0  0  0
  5  3  1  0  0  0  0
  6  4  2  0  0  0  0
  7  1  1  0  0  0  0
 27 26  1  0  0  0  0
 28 26  2  0  0  0  0
 29 26  2  0  0  0  0
 30 26  1  0  0  0  0
M  CHG  2   1   1  27  -1
M  END
> <#>
33

> <PLATE>
LAT001

> <ROW>
A

> <COL>
6

> <COORD>
A06

> <LATID>
LAT001A06

> <Supplier>
Microsource

> <Suplier_CAT#>
00310035

> <Name>
Sanguinarine Sulfate

> <Concentration_(mM)>
2.5

> <IC50_(µM)>
48

> <Yeast_Active?>
+

> <Pubchem_CID>
68635

> <Description>
Antineoplastic, Antiplaque Agent

> <Source>
Natural Product; ex Sanguinaria canadensis

$$$$
