
  -ISIS-  08130814242D

 13 14  0  0  0  0  0  0  0  0999 V2000
    5.6625   -3.6083    0.0000 C   0  0  0  0  0  0  0  0  0  0  0  0
    6.3750   -4.0208    0.0000 C   0  0  0  0  0  0  0  0  0  0  0  0
    6.3750   -4.8458    0.0000 N   0  3  0  0  0  0  0  0  0  0  0  0
    4.8750   -3.8625    0.0000 N   0  0  0  0  0  0  0  0  0  0  0  0
    5.6625   -2.7792    0.0000 C   0  0  0  0  0  0  0  0  0  0  0  0
    4.3875   -3.1917    0.0000 N   0  0  0  0  0  0  0  0  0  0  0  0
    4.8750   -2.5208    0.0000 C   0  0  0  0  0  0  0  0  0  0  0  0
    5.3792   -5.3375    0.0000 O   0  5  0  0  0  0  0  0  0  0  0  0
    7.0917   -5.2625    0.0000 O   0  0  0  0  0  0  0  0  0  0  0  0
    4.6208   -1.7375    0.0000 Br  0  0  0  0  0  0  0  0  0  0  0  0
    7.0917   -3.6083    0.0000 C   0  0  0  0  0  0  0  0  0  0  0  0
    6.3750   -2.3667    0.0000 C   0  0  0  0  0  0  0  0  0  0  0  0
    7.0917   -2.7792    0.0000 C   0  0  0  0  0  0  0  0  0  0  0  0
  2  1  1  0  0  0  0
  3  2  1  0  0  0  0
  4  1  1  0  0  0  0
  5  1  2  0  0  0  0
  6  4  1  0  0  0  0
  7  5  1  0  0  0  0
  8  3  1  0  0  0  0
  9  3  2  0  0  0  0
 10  7  1  0  0  0  0
 11  2  2  0  0  0  0
 12  5  1  0  0  0  0
 13 12  2  0  0  0  0
  7  6  2  0  0  0  0
 11 13  1  0  0  0  0
M  CHG  2   3   1   8  -1
M  END
> <#>
203

> <PLATE>
LAT003

> <ROW>
C

> <COL>
7

> <COORD>
C07

> <LATID>
LAT003C07

> <Supplier>
Sigma

> <Suplier_CAT#>
B 2050

> <Name>
3-Bromo-7-Nitroindazole

> <Concentration_(mM)>
2.5

> <IC50_(µM)>
31

> <Yeast_Active?>
-

> <Pubchem_CID>
1649

> <Description>
Nitric oxide synthase (NOS) inhibitor

$$$$
