
  -ISIS-  08130814242D

 19 20  0  0  0  0  0  0  0  0999 V2000
    5.3792   -4.7042    0.0000 N   0  3  0  0  0  0  0  0  0  0  0  0
    4.6667   -4.2917    0.0000 C   0  0  0  0  0  0  0  0  0  0  0  0
    3.9500   -3.0542    0.0000 C   0  0  0  0  0  0  0  0  0  0  0  0
    4.6667   -3.4667    0.0000 C   0  0  0  0  0  0  0  0  0  0  0  0
    5.3875   -5.5292    0.0000 O   0  5  0  0  0  0  0  0  0  0  0  0
    3.2375   -3.4667    0.0000 C   0  0  0  0  0  0  0  0  0  0  0  0
    6.1000   -4.2917    0.0000 O   0  0  0  0  0  0  0  0  0  0  0  0
    2.5250   -3.0542    0.0000 O   0  0  0  0  0  0  0  0  0  0  0  0
    3.9500   -4.7042    0.0000 C   0  0  0  0  0  0  0  0  0  0  0  0
    3.9417   -2.2292    0.0000 C   0  0  0  0  0  0  0  0  0  0  0  0
    3.2375   -4.2917    0.0000 C   0  0  0  0  0  0  0  0  0  0  0  0
    3.2292   -1.8250    0.0000 O   0  0  0  0  0  0  0  0  0  0  0  0
    1.8042   -3.4667    0.0000 C   0  0  0  0  0  0  0  0  0  0  0  0
    1.0917   -3.0542    0.0000 C   0  0  0  0  0  0  0  0  0  0  0  0
    1.1000   -2.2292    0.0000 C   0  0  0  0  0  0  0  0  0  0  0  0
    0.3875   -3.4667    0.0000 C   0  0  0  0  0  0  0  0  0  0  0  0
   -0.3333   -3.0625    0.0000 C   0  0  0  0  0  0  0  0  0  0  0  0
    0.3792   -1.8167    0.0000 C   0  0  0  0  0  0  0  0  0  0  0  0
   -0.3333   -2.2292    0.0000 C   0  0  0  0  0  0  0  0  0  0  0  0
  2  1  1  0  0  0  0
  3  4  2  0  0  0  0
  4  2  1  0  0  0  0
  5  1  1  0  0  0  0
  6 11  2  0  0  0  0
  7  1  2  0  0  0  0
  8  6  1  0  0  0  0
  9  2  2  0  0  0  0
 10  3  1  0  0  0  0
 11  9  1  0  0  0  0
 12 10  2  0  0  0  0
 13  8  1  0  0  0  0
 14 13  1  0  0  0  0
 15 14  2  0  0  0  0
 16 14  1  0  0  0  0
 17 16  2  0  0  0  0
 18 15  1  0  0  0  0
 19 17  1  0  0  0  0
  6  3  1  0  0  0  0
 19 18  2  0  0  0  0
M  CHG  2   1   1   5  -1
M  END
> <#>
1974

> <PLATE>
LAT025

> <ROW>
F

> <COL>
8

> <COORD>
F08

> <LATID>
LAT025F08

> <Supplier>
Chembridge

> <Suplier_CAT#>
7761961

> <Concentration_(mM)>
2.5

> <IC50_(µM)>
inactive

> <Yeast_Active?>
+

> <Pubchem_CID>
965916

$$$$
