
  -ISIS-  08130814242D

 24 26  0  0  0  0  0  0  0  0999 V2000
   -1.2625    0.9125    0.0000 C   0  0  0  0  0  0  0  0  0  0  0  0
    0.3167    0.9125    0.0000 C   0  0  0  0  0  0  0  0  0  0  0  0
   -2.0458    1.3500    0.0000 C   0  0  0  0  0  0  0  0  0  0  0  0
   -1.2625   -0.0042    0.0000 C   0  0  0  0  0  0  0  0  0  0  0  0
   -0.4833    1.3500    0.0000 C   0  0  0  0  0  0  0  0  0  0  0  0
   -2.0458   -0.4667    0.0000 C   0  0  0  0  0  0  0  0  0  0  0  0
    1.1167    1.3708    0.0000 C   0  0  0  0  0  0  0  0  0  0  0  0
   -2.8208    0.9125    0.0000 C   0  0  0  0  0  0  0  0  0  0  0  0
   -2.8208   -0.0042    0.0000 C   0  0  0  0  0  0  0  0  0  0  0  0
    0.3167   -0.0042    0.0000 C   0  0  0  0  0  0  0  0  0  0  0  0
   -0.4833   -0.4667    0.0000 C   0  0  0  0  0  0  0  0  0  0  0  0
    1.9000    0.9333    0.0000 N   0  0  3  0  0  0  0  0  0  0  0  0
   -2.0458    2.2708    0.0000 O   0  0  0  0  0  0  0  0  0  0  0  0
   -2.0458   -1.3667    0.0000 O   0  0  0  0  0  0  0  0  0  0  0  0
    1.1167    2.2958    0.0000 O   0  0  0  0  0  0  0  0  0  0  0  0
   -0.4833    2.2708    0.0000 N   0  0  0  0  0  0  0  0  0  0  0  0
   -3.6000    1.3500    0.0000 C   0  0  0  0  0  0  0  0  0  0  0  0
   -3.6000   -0.4667    0.0000 C   0  0  0  0  0  0  0  0  0  0  0  0
    1.9000    0.0125    0.0000 C   0  0  0  0  0  0  0  0  0  0  0  0
    2.6792    1.3708    0.0000 C   0  0  0  0  0  0  0  0  0  0  0  0
    2.6792    2.2708    0.0000 C   0  0  0  0  0  0  0  0  0  0  0  0
    2.6792   -0.4375    0.0000 C   0  0  0  0  0  0  0  0  0  0  0  0
   -4.3833   -0.0042    0.0000 C   0  0  0  0  0  0  0  0  0  0  0  0
   -4.3833    0.9125    0.0000 C   0  0  0  0  0  0  0  0  0  0  0  0
  2  5  2  0  0  0  0
  3  1  1  0  0  0  0
  4  1  2  0  0  0  0
  5  1  1  0  0  0  0
  6  4  1  0  0  0  0
  7  2  1  0  0  0  0
  8  3  1  0  0  0  0
  9  6  1  0  0  0  0
 10  2  1  0  0  0  0
 11  4  1  0  0  0  0
 12  7  1  0  0  0  0
 13  3  2  0  0  0  0
 14  6  2  0  0  0  0
 15  7  2  0  0  0  0
 16  5  1  0  0  0  0
 17  8  1  0  0  0  0
 18  9  1  0  0  0  0
 19 12  1  0  0  0  0
 20 12  1  0  0  0  0
 21 20  1  0  0  0  0
 22 19  1  0  0  0  0
 23 18  2  0  0  0  0
 24 17  2  0  0  0  0
 10 11  2  0  0  0  0
  8  9  2  0  0  0  0
 23 24  1  0  0  0  0
M  END
> <#>
1749

> <PLATE>
LAT022

> <ROW>
E

> <COL>
10

> <COORD>
E10

> <LATID>
LAT022E10

> <Supplier>
Chembridge

> <Suplier_CAT#>
5470862

> <Name>
Novel

> <Sec_Name>
135_G03

> <Concentration_(mM)>
2.5

> <IC50_(µM)>
10

> <Yeast_Active?>
-

> <Pubchem_CID>
NULL

$$$$
