
  -ISIS-  08130814242D

 20 23  0  0  0  0  0  0  0  0999 V2000
   -1.3958    0.5125    0.0000 N   0  0  3  0  0  0  0  0  0  0  0  0
   -2.0208    0.1833    0.0000 C   0  0  0  0  0  0  0  0  0  0  0  0
   -1.3708    1.2000    0.0000 C   0  0  0  0  0  0  0  0  0  0  0  0
   -2.6000    0.5458    0.0000 C   0  0  0  0  0  0  0  0  0  0  0  0
   -2.5958    1.2458    0.0000 N   0  0  0  0  0  0  0  0  0  0  0  0
   -1.9708    1.5708    0.0000 C   0  0  0  0  0  0  0  0  0  0  0  0
   -2.2333   -0.5000    0.0000 N   0  0  0  0  0  0  0  0  0  0  0  0
   -3.1500    0.1125    0.0000 N   0  0  0  0  0  0  0  0  0  0  0  0
   -0.6958    1.3958    0.0000 N   0  0  0  0  0  0  0  0  0  0  0  0
   -2.9000   -0.5542    0.0000 O   0  0  0  0  0  0  0  0  0  0  0  0
   -0.3125    0.8333    0.0000 N   0  0  0  0  0  0  0  0  0  0  0  0
   -0.7208    0.2958    0.0000 C   0  0  0  0  0  0  0  0  0  0  0  0
   -1.9708    2.2708    0.0000 N   0  0  0  0  0  0  0  0  0  0  0  0
   -2.5500    2.6125    0.0000 C   0  0  0  0  0  0  0  0  0  0  0  0
   -3.7458    3.3208    0.0000 C   0  0  0  0  0  0  0  0  0  0  0  0
   -4.3333    3.6833    0.0000 Cl  0  0  0  0  0  0  0  0  0  0  0  0
   -2.5500    3.3000    0.0000 C   0  0  0  0  0  0  0  0  0  0  0  0
   -3.1500    2.2833    0.0000 C   0  0  0  0  0  0  0  0  0  0  0  0
   -3.7458    2.6208    0.0000 C   0  0  0  0  0  0  0  0  0  0  0  0
   -3.1458    3.6500    0.0000 C   0  0  0  0  0  0  0  0  0  0  0  0
  2  1  1  0  0  0  0
  3  1  1  0  0  0  0
  4  2  1  0  0  0  0
  5  6  2  0  0  0  0
  6  3  1  0  0  0  0
  7  2  2  0  0  0  0
  8  4  2  0  0  0  0
  9  3  2  0  0  0  0
 10  7  1  0  0  0  0
 11 12  2  0  0  0  0
 12  1  1  0  0  0  0
 13  6  1  0  0  0  0
 14 13  1  0  0  0  0
 15 19  1  0  0  0  0
 16 15  1  0  0  0  0
 17 14  2  0  0  0  0
 18 14  1  0  0  0  0
 19 18  2  0  0  0  0
 20 17  1  0  0  0  0
  9 11  1  0  0  0  0
  5  4  1  0  0  0  0
 10  8  1  0  0  0  0
 15 20  2  0  0  0  0
M  END
> <#>
2070

> <PLATE>
LAT026

> <ROW>
F

> <COL>
10

> <COORD>
F10

> <LATID>
LAT026F10

> <Supplier>
Chembridge

> <Suplier_CAT#>
5659591

> <Sec_Name>
205_E03

> <Concentration_(mM)>
2.5

> <IC50_(µM)>
>100

> <Yeast_Active?>
-

> <Pubchem_CID>
867585

$$$$
