
  -ISIS-  08130814242D

 29 31  0  0  0  0  0  0  0  0999 V2000
    0.6292    0.9000    0.0000 C   0  0  3  0  0  0  0  0  0  0  0  0
    0.6292    1.7333    0.0000 C   0  0  0  0  0  0  0  0  0  0  0  0
    1.4542    0.9000    0.0000 C   0  0  0  0  0  0  0  0  0  0  0  0
   -0.1958    0.9000    0.0000 C   0  0  0  0  0  0  0  0  0  0  0  0
    3.1000    0.9000    0.0000 C   0  0  0  0  0  0  0  0  0  0  0  0
    0.6542    3.3708    0.0000 C   0  0  0  0  0  0  0  0  0  0  0  0
   -1.8333    0.9125    0.0000 C   0  0  0  0  0  0  0  0  0  0  0  0
   -2.6625    0.9333    0.0000 N   0  0  3  0  0  0  0  0  0  0  0  0
    0.6667    4.2000    0.0000 N   0  0  3  0  0  0  0  0  0  0  0  0
    3.9292    0.9000    0.0000 N   0  0  3  0  0  0  0  0  0  0  0  0
   -0.5958    1.6125    0.0000 C   0  0  0  0  0  0  0  0  0  0  0  0
    1.8875    0.1833    0.0000 C   0  0  0  0  0  0  0  0  0  0  0  0
   -0.0625    2.1333    0.0000 C   0  0  0  0  0  0  0  0  0  0  0  0
   -0.6125    0.2000    0.0000 C   0  0  0  0  0  0  0  0  0  0  0  0
    1.3542    2.1333    0.0000 C   0  0  0  0  0  0  0  0  0  0  0  0
    1.8792    1.6125    0.0000 C   0  0  0  0  0  0  0  0  0  0  0  0
    1.3542    2.9625    0.0000 C   0  0  0  0  0  0  0  0  0  0  0  0
    2.7000    0.1833    0.0000 C   0  0  0  0  0  0  0  0  0  0  0  0
   -1.4208    0.2000    0.0000 C   0  0  0  0  0  0  0  0  0  0  0  0
    2.6875    1.6125    0.0000 C   0  0  0  0  0  0  0  0  0  0  0  0
   -0.0625    2.9458    0.0000 C   0  0  0  0  0  0  0  0  0  0  0  0
   -1.4000    1.6208    0.0000 C   0  0  0  0  0  0  0  0  0  0  0  0
    0.6292    0.0708    0.0000 O   0  0  0  0  0  0  0  0  0  0  0  0
   -3.0500    1.6458    0.0000 C   0  0  0  0  0  0  0  0  0  0  0  0
    1.3875    4.5875    0.0000 C   0  0  0  0  0  0  0  0  0  0  0  0
   -0.0208    4.6292    0.0000 C   0  0  0  0  0  0  0  0  0  0  0  0
   -3.0958    0.2208    0.0000 C   0  0  0  0  0  0  0  0  0  0  0  0
    4.3292    1.6000    0.0000 C   0  0  0  0  0  0  0  0  0  0  0  0
    4.3292    0.1958    0.0000 C   0  0  0  0  0  0  0  0  0  0  0  0
  2  1  1  0  0  0  0
  3  1  1  0  0  0  0
  4  1  1  0  0  0  0
  5 20  2  0  0  0  0
  6 17  1  0  0  0  0
  7 19  2  0  0  0  0
  8  7  1  0  0  0  0
  9  6  1  0  0  0  0
 10  5  1  0  0  0  0
 11  4  1  0  0  0  0
 12  3  1  0  0  0  0
 13  2  2  0  0  0  0
 14  4  2  0  0  0  0
 15  2  1  0  0  0  0
 16  3  2  0  0  0  0
 17 15  2  0  0  0  0
 18 12  2  0  0  0  0
 19 14  1  0  0  0  0
 20 16  1  0  0  0  0
 21 13  1  0  0  0  0
 22 11  2  0  0  0  0
 23  1  1  0  0  0  0
 24  8  1  0  0  0  0
 25  9  1  0  0  0  0
 26  9  1  0  0  0  0
 27  8  1  0  0  0  0
 28 10  1  0  0  0  0
 29 10  1  0  0  0  0
 22  7  1  0  0  0  0
 18  5  1  0  0  0  0
 21  6  2  0  0  0  0
M  END
> <#>
1006

> <PLATE>
LAT013

> <ROW>
F

> <COL>
7

> <COORD>
F07

> <LATID>
LAT013F07

> <Supplier>
Chembridge

> <Suplier_CAT#>
5152606

> <Name>
Novel

> <Concentration_(mM)>
2.5

> <IC50_(µM)>
3.2

> <Yeast_Active?>
+

> <Pubchem_CID>
68050

$$$$
