
  -ISIS-  08130814242D

  9  7  0  0  0  0  0  0  0  0999 V2000
   -2.3769    2.7515    0.0000 Na  0  3  0  0  0  0  0  0  0  0  0  0
   -2.3769    0.5865    0.0000 C   0  0  0  0  0  0  0  0  0  0  0  0
   -3.0019   -0.4961    0.0000 N   0  0  3  0  0  0  0  0  0  0  0  0
   -3.0019    1.6690    0.0000 S   0  5  0  0  0  0  0  0  0  0  0  0
   -1.1269    0.5865    0.0000 S   0  0  0  0  0  0  0  0  0  0  0  0
   -2.3769   -1.5786    0.0000 C   0  0  0  0  0  0  0  0  0  0  0  0
   -1.1269   -1.5786    0.0000 C   0  0  0  0  0  0  0  0  0  0  0  0
   -4.2519   -0.4961    0.0000 C   0  0  0  0  0  0  0  0  0  0  0  0
   -4.8769   -1.5786    0.0000 C   0  0  0  0  0  0  0  0  0  0  0  0
  2  3  1  0  0  0  0
  2  4  1  0  0  0  0
  2  5  2  0  0  0  0
  6  7  1  0  0  0  0
  3  6  1  0  0  0  0
  8  9  1  0  0  0  0
  3  8  1  0  0  0  0
M  CHG  2   1   1   4  -1
M  END
> <#>
392

> <PLATE>
LAT005

> <ROW>
H

> <COL>
10

> <COORD>
H10

> <LATID>
LAT005H10

> <Supplier>
Sigma

> <Suplier_CAT#>
D-3506

> <Name>
Diethyldithiocarbamic Acid Sodium Salt

> <Concentration_(mM)>
2.5

> <IC50_(µM)>
inactive

> <Yeast_Active?>
+

> <Pubchem_CID>
8990

$$$$
