
  -ISIS-  08130814242D

 18 19  0  0  0  0  0  0  0  0999 V2000
    6.9875    1.5208    0.0000 C   0  0  0  0  0  0  0  0  0  0  0  0
    6.3417    1.1458    0.0000 C   0  0  0  0  0  0  0  0  0  0  0  0
    8.2875    1.5208    0.0000 N   0  0  0  0  0  0  0  0  0  0  0  0
    7.6375    1.1458    0.0000 C   0  0  0  0  0  0  0  0  0  0  0  0
    6.9875    2.2708    0.0000 O   0  0  0  0  0  0  0  0  0  0  0  0
    5.6917    1.5208    0.0000 C   0  0  0  0  0  0  0  0  0  0  0  0
    6.3417    0.3958    0.0000 C   0  0  0  0  0  0  0  0  0  0  0  0
    8.9375    1.1458    0.0000 C   0  0  0  0  0  0  0  0  0  0  0  0
   10.2375    0.3958    0.0000 C   0  0  0  0  0  0  0  0  0  0  0  0
    5.0417    0.3958    0.0000 C   0  0  0  0  0  0  0  0  0  0  0  0
    5.6917    0.0208    0.0000 C   0  0  0  0  0  0  0  0  0  0  0  0
    5.0417    1.1458    0.0000 C   0  0  0  0  0  0  0  0  0  0  0  0
   10.8875    0.0208    0.0000 Br  0  0  0  0  0  0  0  0  0  0  0  0
    9.5875    1.5208    0.0000 C   0  0  0  0  0  0  0  0  0  0  0  0
    8.9375    0.3958    0.0000 C   0  0  0  0  0  0  0  0  0  0  0  0
    9.5875    0.0208    0.0000 C   0  0  0  0  0  0  0  0  0  0  0  0
   10.2375    1.1458    0.0000 C   0  0  0  0  0  0  0  0  0  0  0  0
    4.3917    0.0208    0.0000 O   0  0  0  0  0  0  0  0  0  0  0  0
  2  1  1  0  0  0  0
  3  4  1  0  0  0  0
  4  1  1  0  0  0  0
  5  1  2  0  0  0  0
  6  2  1  0  0  0  0
  7  2  2  0  0  0  0
  8  3  1  0  0  0  0
  9 16  2  0  0  0  0
 10 11  2  0  0  0  0
 11  7  1  0  0  0  0
 12  6  2  0  0  0  0
 13  9  1  0  0  0  0
 14  8  1  0  0  0  0
 15  8  2  0  0  0  0
 16 15  1  0  0  0  0
 17 14  2  0  0  0  0
 18 10  1  0  0  0  0
 10 12  1  0  0  0  0
  9 17  1  0  0  0  0
M  END
> <#>
1389

> <PLATE>
LAT018

> <ROW>
E

> <COL>
5

> <COORD>
E05

> <LATID>
LAT018E05

> <Supplier>
Chembridge

> <Suplier_CAT#>
7950288

> <Name>
Novel

> <Concentration_(mM)>
2.5

> <IC50_(µM)>
67

> <Yeast_Active?>
-

> <Pubchem_CID>
847844

$$$$
