
  -ISIS-  08130814242D

 14 15  0  0  0  0  0  0  0  0999 V2000
    3.2625   -1.1792    0.0000 I   0  3  0  0  0  0  0  0  0  0  0  0
    2.3917   -1.6792    0.0000 C   0  0  0  0  0  0  0  0  0  0  0  0
    4.1292   -1.6792    0.0000 C   0  0  0  0  0  0  0  0  0  0  0  0
    2.3917   -2.6792    0.0000 C   0  0  0  0  0  0  0  0  0  0  0  0
    4.1292   -2.6792    0.0000 C   0  0  0  0  0  0  0  0  0  0  0  0
    4.9917   -3.1792    0.0000 C   0  0  0  0  0  0  0  0  0  0  0  0
    1.5167   -3.1625    0.0000 C   0  0  0  0  0  0  0  0  0  0  0  0
    4.9917   -1.1792    0.0000 C   0  0  0  0  0  0  0  0  0  0  0  0
    1.5167   -1.1625    0.0000 C   0  0  0  0  0  0  0  0  0  0  0  0
    0.6417   -2.6792    0.0000 C   0  0  0  0  0  0  0  0  0  0  0  0
    5.8625   -2.6792    0.0000 C   0  0  0  0  0  0  0  0  0  0  0  0
    0.6417   -1.6792    0.0000 C   0  0  0  0  0  0  0  0  0  0  0  0
    5.8625   -1.6792    0.0000 C   0  0  0  0  0  0  0  0  0  0  0  0
    3.1750    0.3458    0.0000 Cl  0  5  0  0  0  0  0  0  0  0  0  0
  2  1  1  0  0  0  0
  3  1  1  0  0  0  0
  4  2  1  0  0  0  0
  5  3  2  0  0  0  0
  6  5  1  0  0  0  0
  7  4  2  0  0  0  0
  8  3  1  0  0  0  0
  9  2  2  0  0  0  0
 10 12  2  0  0  0  0
 11 13  1  0  0  0  0
 12  9  1  0  0  0  0
 13  8  2  0  0  0  0
  4  5  1  0  0  0  0
  6 11  2  0  0  0  0
  7 10  1  0  0  0  0
M  CHG  2   1   1  14  -1
M  END
> <#>
221

> <PLATE>
LAT003

> <ROW>
E

> <COL>
9

> <COORD>
E09

> <LATID>
LAT003E09

> <Supplier>
Sigma

> <Suplier_CAT#>
D 2926

> <Name>
Diphenyleneiodonium Chloride

> <Concentration_(mM)>
2.5

> <IC50_(µM)>
0.65

> <Yeast_Active?>
-

> <Pubchem_CID>
3101

> <Description>
Endothelial nitric oxide synthase inhibitor

$$$$
