
  -ISIS-  08130814242D

 21 23  0  0  0  0  0  0  0  0999 V2000
   -1.9208   -0.8042    0.0000 N   0  0  0  0  0  0  0  0  0  0  0  0
   -1.5833   -0.2292    0.0000 C   0  0  0  0  0  0  0  0  0  0  0  0
   -2.6000   -0.8292    0.0000 C   0  0  0  0  0  0  0  0  0  0  0  0
   -2.6000    0.3500    0.0000 C   0  0  0  0  0  0  0  0  0  0  0  0
   -2.9458   -0.2500    0.0000 C   0  0  0  0  0  0  0  0  0  0  0  0
   -0.5625   -0.8042    0.0000 N   0  0  0  0  0  0  0  0  0  0  0  0
   -1.9208    0.3500    0.0000 C   0  0  0  0  0  0  0  0  0  0  0  0
    0.4667   -0.2292    0.0000 C   0  0  0  0  0  0  0  0  0  0  0  0
   -0.9000   -0.2292    0.0000 N   0  0  0  0  0  0  0  0  0  0  0  0
    1.1375   -0.2292    0.0000 C   0  0  0  0  0  0  0  0  0  0  0  0
    0.1375   -0.8042    0.0000 C   0  0  0  0  0  0  0  0  0  0  0  0
    1.4667   -0.8042    0.0000 O   0  0  0  0  0  0  0  0  0  0  0  0
   -2.9458    0.9500    0.0000 C   0  0  0  0  0  0  0  0  0  0  0  0
   -2.9458   -1.4042    0.0000 C   0  0  0  0  0  0  0  0  0  0  0  0
    0.1375    0.3500    0.0000 C   0  0  0  0  0  0  0  0  0  0  0  0
   -3.6208   -0.2500    0.0000 C   0  0  0  0  0  0  0  0  0  0  0  0
    1.4792    0.3500    0.0000 C   0  0  0  0  0  0  0  0  0  0  0  0
   -3.6208   -1.4042    0.0000 C   0  0  0  0  0  0  0  0  0  0  0  0
    0.4667    0.9458    0.0000 C   0  0  0  0  0  0  0  0  0  0  0  0
   -3.9625   -0.8292    0.0000 C   0  0  0  0  0  0  0  0  0  0  0  0
    1.1500    0.9458    0.0000 C   0  0  0  0  0  0  0  0  0  0  0  0
  2  1  2  0  0  0  0
  3  1  1  0  0  0  0
  4  5  1  0  0  0  0
  5  3  2  0  0  0  0
  6  9  1  0  0  0  0
  7  2  1  0  0  0  0
  8 11  1  0  0  0  0
  9  2  1  0  0  0  0
 10  8  2  0  0  0  0
 11  6  2  0  0  0  0
 12 10  1  0  0  0  0
 13  4  1  0  0  0  0
 14  3  1  0  0  0  0
 15  8  1  0  0  0  0
 16  5  1  0  0  0  0
 17 10  1  0  0  0  0
 18 14  2  0  0  0  0
 19 15  2  0  0  0  0
 20 18  1  0  0  0  0
 21 19  1  0  0  0  0
  7  4  2  0  0  0  0
 20 16  2  0  0  0  0
 17 21  2  0  0  0  0
M  END
> <#>
1784

> <PLATE>
LAT023

> <ROW>
H

> <COL>
4

> <COORD>
H04

> <LATID>
LAT023H04

> <Supplier>
Chembridge

> <Suplier_CAT#>
5549443

> <Name>
Novel

> <Sec_Name>
168_C05

> <Concentration_(mM)>
2.5

> <IC50_(µM)>
22

> <Yeast_Active?>
+

> <Pubchem_CID>
NULL

$$$$
