
  -ISIS-  08130814242D

 17 18  0  0  0  0  0  0  0  0999 V2000
    0.6500    0.9958    0.0000 C   0  0  0  0  0  0  0  0  0  0  0  0
   -0.2958    1.5333    0.0000 C   0  0  0  0  0  0  0  0  0  0  0  0
    1.5667    1.5125    0.0000 C   0  0  0  0  0  0  0  0  0  0  0  0
    2.4875    0.9958    0.0000 C   0  0  0  0  0  0  0  0  0  0  0  0
   -1.2333    0.9958    0.0000 C   0  0  0  0  0  0  0  0  0  0  0  0
    2.4875   -0.0875    0.0000 C   0  0  0  0  0  0  0  0  0  0  0  0
    0.6500   -0.0875    0.0000 C   0  0  0  0  0  0  0  0  0  0  0  0
   -0.2958    2.6125    0.0000 O   0  0  0  0  0  0  0  0  0  0  0  0
    1.5667   -0.6292    0.0000 C   0  0  0  0  0  0  0  0  0  0  0  0
   -1.2333   -0.0875    0.0000 C   0  0  0  0  0  0  0  0  0  0  0  0
   -2.1708    1.5333    0.0000 C   0  0  0  0  0  0  0  0  0  0  0  0
   -3.0958   -0.0667    0.0000 C   0  0  0  0  0  0  0  0  0  0  0  0
   -3.0958    1.0125    0.0000 C   0  0  0  0  0  0  0  0  0  0  0  0
   -2.1500   -0.6042    0.0000 C   0  0  0  0  0  0  0  0  0  0  0  0
   -4.0333   -0.6042    0.0000 O   0  0  0  0  0  0  0  0  0  0  0  0
    3.4292    1.5333    0.0000 C   0  0  0  0  0  0  0  0  0  0  0  0
    3.4292   -0.6500    0.0000 C   0  0  0  0  0  0  0  0  0  0  0  0
  2  1  1  0  0  0  0
  3  1  2  0  0  0  0
  4  3  1  0  0  0  0
  5  2  1  0  0  0  0
  6  9  1  0  0  0  0
  7  1  1  0  0  0  0
  8  2  2  0  0  0  0
  9  7  2  0  0  0  0
 10  5  1  0  0  0  0
 11  5  2  0  0  0  0
 12 13  2  0  0  0  0
 13 11  1  0  0  0  0
 14 10  2  0  0  0  0
 15 12  1  0  0  0  0
 16  4  1  0  0  0  0
 17  6  1  0  0  0  0
  4  6  2  0  0  0  0
 12 14  1  0  0  0  0
M  END
> <#>
1160

> <PLATE>
LAT015

> <ROW>
H

> <COL>
6

> <COORD>
H06

> <LATID>
LAT015H06

> <Supplier>
Chembridge

> <Suplier_CAT#>
5152588

> <Name>
Novel

> <Concentration_(mM)>
2.5

> <IC50_(µM)>
>100

> <Yeast_Active?>
-

> <Pubchem_CID>
786802

$$$$
