
  -ISIS-  08130814242D

 20 21  0  0  0  0  0  0  0  0999 V2000
    3.2542   -1.5667    0.0000 C   0  0  0  0  0  0  0  0  0  0  0  0
    3.9042   -2.6875    0.0000 N   0  0  0  0  0  0  0  0  0  0  0  0
    3.9042   -1.9375    0.0000 N   0  0  0  0  0  0  0  0  0  0  0  0
    2.6042   -1.9375    0.0000 O   0  0  0  0  0  0  0  0  0  0  0  0
    6.5042   -2.7000    0.0000 N   0  0  0  0  0  0  0  0  0  0  0  0
    4.5542   -3.0667    0.0000 C   0  0  0  0  0  0  0  0  0  0  0  0
    5.2042   -2.6875    0.0000 C   0  0  0  0  0  0  0  0  0  0  0  0
    3.2542   -0.8167    0.0000 C   0  0  0  0  0  0  0  0  0  0  0  0
    2.6042   -0.4375    0.0000 O   0  0  0  0  0  0  0  0  0  0  0  0
    1.9542   -0.8167    0.0000 C   0  0  0  0  0  0  0  0  0  0  0  0
    0.6542   -1.5667    0.0000 C   0  0  0  0  0  0  0  0  0  0  0  0
    1.3042   -0.4375    0.0000 C   0  0  0  0  0  0  0  0  0  0  0  0
    1.9542   -1.5667    0.0000 C   0  0  0  0  0  0  0  0  0  0  0  0
    0.6542   -0.8167    0.0000 C   0  0  0  0  0  0  0  0  0  0  0  0
    1.3042   -1.9500    0.0000 C   0  0  0  0  0  0  0  0  0  0  0  0
    5.8542   -3.0667    0.0000 C   0  0  0  0  0  0  0  0  0  0  0  0
    6.5042   -1.9500    0.0000 C   0  0  0  0  0  0  0  0  0  0  0  0
    5.2042   -1.9375    0.0000 C   0  0  0  0  0  0  0  0  0  0  0  0
    0.0042   -1.9500    0.0000 C   0  0  0  0  0  0  0  0  0  0  0  0
    5.8542   -1.5667    0.0000 C   0  0  0  0  0  0  0  0  0  0  0  0
  2  3  1  0  0  0  0
  3  1  1  0  0  0  0
  4  1  2  0  0  0  0
  5 16  2  0  0  0  0
  6  2  2  0  0  0  0
  7  6  1  0  0  0  0
  8  1  1  0  0  0  0
  9  8  1  0  0  0  0
 10  9  1  0  0  0  0
 11 15  2  0  0  0  0
 12 10  1  0  0  0  0
 13 10  2  0  0  0  0
 14 12  2  0  0  0  0
 15 13  1  0  0  0  0
 16  7  1  0  0  0  0
 17 20  2  0  0  0  0
 18  7  2  0  0  0  0
 19 11  1  0  0  0  0
 20 18  1  0  0  0  0
 14 11  1  0  0  0  0
  5 17  1  0  0  0  0
M  END
> <#>
1963

> <PLATE>
LAT025

> <ROW>
C

> <COL>
7

> <COORD>
C07

> <LATID>
LAT025C07

> <Supplier>
Chembridge

> <Suplier_CAT#>
5473134

> <Concentration_(mM)>
2.5

> <IC50_(µM)>
7

> <Yeast_Active?>
-

> <Pubchem_CID>
867365

$$$$
