
  -ISIS-  08130814242D

 34 36  0  0  0  0  0  0  0  0999 V2000
    6.8667   -4.2917    0.0000 C   0  0  2  0  0  0  0  0  0  0  0  0
    5.4375   -4.2917    0.0000 C   0  0  0  0  0  0  0  0  0  0  0  0
    6.8667   -5.1167    0.0000 C   0  0  2  0  0  0  0  0  0  0  0  0
    8.3000   -4.2917    0.0000 C   0  0  0  0  0  0  0  0  0  0  0  0
    6.1542   -3.8792    0.0000 C   0  0  0  0  0  0  0  0  0  0  0  0
    5.4375   -5.1167    0.0000 C   0  0  1  0  0  0  0  0  0  0  0  0
    7.5792   -3.8792    0.0000 C   0  0  0  0  0  0  0  0  0  0  0  0
    8.3000   -5.1167    0.0000 C   0  0  0  0  0  0  0  0  0  0  0  0
    4.7250   -3.8792    0.0000 C   0  0  0  0  0  0  0  0  0  0  0  0
    4.7250   -5.5292    0.0000 C   0  0  1  0  0  0  0  0  0  0  0  0
    7.5792   -5.5292    0.0000 C   0  0  1  0  0  0  0  0  0  0  0  0
    6.1542   -5.5292    0.0000 C   0  0  2  0  0  0  0  0  0  0  0  0
    4.0125   -4.2917    0.0000 C   0  0  0  0  0  0  0  0  0  0  0  0
    4.0125   -5.1167    0.0000 C   0  0  0  0  0  0  0  0  0  0  0  0
    9.0167   -3.8792    0.0000 C   0  0  0  0  0  0  0  0  0  0  0  0
    7.5792   -6.3542    0.0000 N   0  0  3  0  0  0  0  0  0  0  0  0
    7.5792   -3.0542    0.0000 O   0  0  0  0  0  0  0  0  0  0  0  0
    4.7250   -3.0542    0.0000 O   0  0  0  0  0  0  0  0  0  0  0  0
    3.3000   -3.8792    0.0000 C   0  0  0  0  0  0  0  0  0  0  0  0
    6.8667   -3.4625    0.0000 O   0  0  0  0  0  0  0  0  0  0  0  0
    9.7292   -4.2917    0.0000 O   0  0  0  0  0  0  0  0  0  0  0  0
    6.1542   -3.0542    0.0000 O   0  0  0  0  0  0  0  0  0  0  0  0
    9.0167   -5.5375    0.0000 O   0  0  0  0  0  0  0  0  0  0  0  0
    4.9500   -6.2542    0.0000 O   0  0  0  0  0  0  0  0  0  0  0  0
    6.1542   -6.3542    0.0000 O   0  0  0  0  0  0  0  0  0  0  0  0
    9.0250   -3.0542    0.0000 N   0  0  0  0  0  0  0  0  0  0  0  0
    4.1125   -6.0792    0.0000 C   0  0  0  0  0  0  0  0  0  0  0  0
    3.3000   -5.5292    0.0000 C   0  0  0  0  0  0  0  0  0  0  0  0
    3.3000   -3.0542    0.0000 O   0  0  0  0  0  0  0  0  0  0  0  0
    2.5792   -5.1167    0.0000 C   0  0  0  0  0  0  0  0  0  0  0  0
    2.5792   -4.2917    0.0000 C   0  0  0  0  0  0  0  0  0  0  0  0
    8.3000   -6.7667    0.0000 C   0  0  0  0  0  0  0  0  0  0  0  0
    6.8667   -6.7667    0.0000 C   0  0  0  0  0  0  0  0  0  0  0  0
    9.6375   -6.3417    0.0000 Cl  0  0  0  0  0  0  0  0  0  0  0  0
  2  5  2  0  0  0  0
  3  1  1  0  0  0  0
  4  7  1  0  0  0  0
  5  1  1  0  0  0  0
  6  2  1  0  0  0  0
  7  1  1  0  0  0  0
  8  4  2  0  0  0  0
  9  2  1  0  0  0  0
 10  6  1  0  0  0  0
 11  3  1  0  0  0  0
  3 12  1  6  0  0  0
 13  9  1  0  0  0  0
 14 13  2  0  0  0  0
 15  4  1  0  0  0  0
 11 16  1  1  0  0  0
 17  7  2  0  0  0  0
 18  9  2  0  0  0  0
 19 13  1  0  0  0  0
  1 20  1  1  0  0  0
 21 15  2  0  0  0  0
 22  5  1  0  0  0  0
 23  8  1  0  0  0  0
 10 24  1  6  0  0  0
 12 25  1  1  0  0  0
 26 15  1  0  0  0  0
 10 27  1  1  0  0  0
 28 14  1  0  0  0  0
 29 19  1  0  0  0  0
 30 31  1  0  0  0  0
 31 19  2  0  0  0  0
 32 16  1  0  0  0  0
 33 16  1  0  0  0  0
  6 12  1  6  0  0  0
 11  8  1  0  0  0  0
 14 10  1  0  0  0  0
 28 30  2  0  0  0  0
M  END
> <#>
103

> <PLATE>
LAT002

> <ROW>
G

> <COL>
4

> <COORD>
G04

> <LATID>
LAT002G04

> <Supplier>
Microsource

> <Suplier_CAT#>
01500457

> <Name>
Oxytetracycline

> <Concentration_(mM)>
2.5

> <IC50_(µM)>
10

> <Yeast_Active?>
-

> <Pubchem_CID>
5280972

> <Description>
Antibacterial

$$$$
