
  -ISIS-  08130814242D

 34 36  0  0  0  0  0  0  0  0999 V2000
    7.4375   -3.0459    0.0000 C   0  0  2  0  0  0  0  0  0  0  0  0
    6.0042   -3.0459    0.0000 C   0  0  0  0  0  0  0  0  0  0  0  0
    8.8667   -3.0459    0.0000 C   0  0  0  0  0  0  0  0  0  0  0  0
    6.7250   -2.6334    0.0000 C   0  0  0  0  0  0  0  0  0  0  0  0
    8.1500   -2.6334    0.0000 C   0  0  0  0  0  0  0  0  0  0  0  0
    5.3000   -2.6334    0.0000 C   0  0  0  0  0  0  0  0  0  0  0  0
    7.4375   -3.8709    0.0000 C   0  0  2  0  0  0  0  0  0  0  0  0
    4.5792   -3.8709    0.0000 C   0  0  0  0  0  0  0  0  0  0  0  0
    4.5792   -3.0459    0.0000 C   0  0  0  0  0  0  0  0  0  0  0  0
    8.8667   -3.8709    0.0000 C   0  0  0  0  0  0  0  0  0  0  0  0
    5.3000   -4.2834    0.0000 C   0  0  2  0  0  0  0  0  0  0  0  0
    6.0042   -3.8709    0.0000 C   0  0  1  0  0  0  0  0  0  0  0  0
    8.1500   -4.2834    0.0000 C   0  0  1  0  0  0  0  0  0  0  0  0
    6.7250   -4.2834    0.0000 C   0  0  0  0  0  0  0  0  0  0  0  0
    9.5875   -2.6334    0.0000 C   0  0  0  0  0  0  0  0  0  0  0  0
    3.8667   -4.2834    0.0000 C   0  0  0  0  0  0  0  0  0  0  0  0
    3.8667   -2.6334    0.0000 C   0  0  0  0  0  0  0  0  0  0  0  0
    8.1500   -1.8084    0.0000 O   0  0  0  0  0  0  0  0  0  0  0  0
    5.3000   -1.8084    0.0000 O   0  0  0  0  0  0  0  0  0  0  0  0
    8.1500   -5.1084    0.0000 N   0  0  3  0  0  0  0  0  0  0  0  0
    7.4500   -2.2959    0.0000 O   0  0  0  0  0  0  0  0  0  0  0  0
   10.3000   -3.0459    0.0000 O   0  0  0  0  0  0  0  0  0  0  0  0
    6.7250   -1.8084    0.0000 O   0  0  0  0  0  0  0  0  0  0  0  0
    9.5875   -4.2959    0.0000 O   0  0  0  0  0  0  0  0  0  0  0  0
    4.7375   -4.8959    0.0000 O   0  0  0  0  0  0  0  0  0  0  0  0
    3.1500   -3.8709    0.0000 C   0  0  0  0  0  0  0  0  0  0  0  0
    3.1500   -3.0459    0.0000 C   0  0  0  0  0  0  0  0  0  0  0  0
    9.5917   -1.8084    0.0000 N   0  0  0  0  0  0  0  0  0  0  0  0
    5.7125   -4.9959    0.0000 C   0  0  0  0  0  0  0  0  0  0  0  0
    3.8667   -5.1084    0.0000 Cl  0  0  0  0  0  0  0  0  0  0  0  0
    3.8667   -1.8084    0.0000 O   0  0  0  0  0  0  0  0  0  0  0  0
    8.8667   -5.5209    0.0000 C   0  0  0  0  0  0  0  0  0  0  0  0
    7.4375   -5.5209    0.0000 C   0  0  0  0  0  0  0  0  0  0  0  0
    9.6125   -5.4084    0.0000 Cl  0  0  0  0  0  0  0  0  0  0  0  0
  2  4  2  0  0  0  0
  3  5  1  0  0  0  0
  4  1  1  0  0  0  0
  5  1  1  0  0  0  0
  6  2  1  0  0  0  0
  7  1  1  0  0  0  0
  8 11  1  0  0  0  0
  9  6  1  0  0  0  0
 10 13  1  0  0  0  0
 11 12  1  0  0  0  0
 12 14  1  6  0  0  0
 13  7  1  0  0  0  0
  7 14  1  6  0  0  0
 15  3  1  0  0  0  0
 16  8  1  0  0  0  0
 17  9  1  0  0  0  0
 18  5  2  0  0  0  0
 19  6  2  0  0  0  0
 13 20  1  1  0  0  0
  1 21  1  1  0  0  0
 22 15  2  0  0  0  0
 23  4  1  0  0  0  0
 24 10  1  0  0  0  0
 11 25  1  6  0  0  0
 26 16  2  0  0  0  0
 27 17  2  0  0  0  0
 28 15  1  0  0  0  0
 11 29  1  1  0  0  0
 30 16  1  0  0  0  0
 31 17  1  0  0  0  0
 32 20  1  0  0  0  0
 33 20  1  0  0  0  0
  2 12  1  0  0  0  0
 10  3  2  0  0  0  0
  9  8  2  0  0  0  0
 26 27  1  0  0  0  0
M  END
> <#>
30

> <PLATE>
LAT001

> <ROW>
F

> <COL>
5

> <COORD>
F05

> <LATID>
LAT001F05

> <Supplier>
Microsource

> <Suplier_CAT#>
1500186

> <Name>
Chlortetracycline Hcl

> <Concentration_(mM)>
2.5

> <IC50_(µM)>
2.1

> <Yeast_Active?>
-

> <Pubchem_CID>
5280963

> <Source>
Natural Product; ex Streptomyces aureofaciens

$$$$
