
  -ISIS-  08130814242D

 26 30  0  0  0  0  0  0  0  0999 V2000
    5.8125   -2.3417    0.0000 N   0  0  3  0  0  0  0  0  0  0  0  0
    6.9542   -3.1792    0.0000 C   0  0  0  0  0  0  0  0  0  0  0  0
    5.3250   -3.0042    0.0000 C   0  0  0  0  0  0  0  0  0  0  0  0
    6.4667   -3.8417    0.0000 C   0  0  0  0  0  0  0  0  0  0  0  0
    6.6250   -2.4292    0.0000 C   0  0  0  0  0  0  0  0  0  0  0  0
    4.5375   -2.7542    0.0000 C   0  0  0  0  0  0  0  0  0  0  0  0
    5.6542   -3.7542    0.0000 C   0  0  0  0  0  0  0  0  0  0  0  0
    4.5375   -1.9292    0.0000 C   0  0  0  0  0  0  0  0  0  0  0  0
    6.7917   -4.5875    0.0000 C   0  0  1  0  0  0  0  0  0  0  0  0
    3.8167   -3.1750    0.0000 N   0  0  0  0  0  0  0  0  0  0  0  0
    5.3250   -1.6792    0.0000 C   0  0  0  0  0  0  0  0  0  0  0  0
    7.6042   -4.6792    0.0000 C   0  0  0  0  0  0  0  0  0  0  0  0
    7.7667   -3.2667    0.0000 C   0  0  0  0  0  0  0  0  0  0  0  0
    8.0917   -4.0250    0.0000 O   0  0  0  0  0  0  0  0  0  0  0  0
    3.8167   -1.5167    0.0000 C   0  0  0  0  0  0  0  0  0  0  0  0
    3.1042   -2.7542    0.0000 C   0  0  0  0  0  0  0  0  0  0  0  0
    7.1125   -1.7625    0.0000 O   0  0  0  0  0  0  0  0  0  0  0  0
    3.1042   -1.9292    0.0000 C   0  0  0  0  0  0  0  0  0  0  0  0
    7.9375   -5.4375    0.0000 O   0  0  0  0  0  0  0  0  0  0  0  0
    6.7917   -5.4125    0.0000 O   0  0  0  0  0  0  0  0  0  0  0  0
    5.9667   -4.5792    0.0000 C   0  0  0  0  0  0  0  0  0  0  0  0
    2.3917   -3.1750    0.0000 C   0  0  0  0  0  0  0  0  0  0  0  0
    2.3917   -1.5167    0.0000 C   0  0  0  0  0  0  0  0  0  0  0  0
    5.5500   -5.2917    0.0000 C   0  0  0  0  0  0  0  0  0  0  0  0
    1.6792   -1.9375    0.0000 C   0  0  0  0  0  0  0  0  0  0  0  0
    1.6792   -2.7625    0.0000 C   0  0  0  0  0  0  0  0  0  0  0  0
  2  5  1  0  0  0  0
  3  1  1  0  0  0  0
  4  2  2  0  0  0  0
  5  1  1  0  0  0  0
  6  3  1  0  0  0  0
  7  3  2  0  0  0  0
  8 11  1  0  0  0  0
  9  4  1  0  0  0  0
 10  6  2  0  0  0  0
 11  1  1  0  0  0  0
 12 14  1  0  0  0  0
 13  2  1  0  0  0  0
 14 13  1  0  0  0  0
 15  8  2  0  0  0  0
 16 10  1  0  0  0  0
 17  5  2  0  0  0  0
 18 15  1  0  0  0  0
 19 12  2  0  0  0  0
  9 20  1  1  0  0  0
  9 21  1  6  0  0  0
 22 16  2  0  0  0  0
 23 18  2  0  0  0  0
 24 21  1  0  0  0  0
 25 23  1  0  0  0  0
 26 22  1  0  0  0  0
  6  8  1  0  0  0  0
  4  7  1  0  0  0  0
 16 18  1  0  0  0  0
 12  9  1  0  0  0  0
 26 25  2  0  0  0  0
M  END
> <#>
81

> <PLATE>
LAT002

> <ROW>
A

> <COL>
2

> <COORD>
A02

> <LATID>
LAT002A02

> <Supplier>
Microsource

> <Suplier_CAT#>
01502232

> <Name>
Camptothecin

> <Concentration_(mM)>
2.5

> <IC50_(µM)>
0.73

> <Yeast_Active?>
-

> <Pubchem_CID>
2538

> <Description>
Antineoplastic

> <Source>
Natural Product; ex Camptotheca acuminata

$$$$
