
  -ISIS-  08130814242D

 23 22  0  0  0  0  0  0  0  0999 V2000
   -1.1333   -6.7042    0.0000 Cl  0  5  0  0  0  0  0  0  0  0  0  0
   -3.4708   -6.4625    0.0000 N   0  3  0  0  0  0  0  0  0  0  0  0
   -3.4708   -5.7125    0.0000 C   0  0  0  0  0  0  0  0  0  0  0  0
   -4.1125   -6.8417    0.0000 C   0  0  0  0  0  0  0  0  0  0  0  0
   -2.8125   -6.8417    0.0000 C   0  0  0  0  0  0  0  0  0  0  0  0
   -2.8208   -5.3292    0.0000 C   0  0  0  0  0  0  0  0  0  0  0  0
    1.0667    2.1708    0.0000 C   0  0  0  0  0  0  0  0  0  0  0  0
   -2.8125   -7.5917    0.0000 C   0  0  0  0  0  0  0  0  0  0  0  0
   -4.1125   -7.5917    0.0000 C   0  0  0  0  0  0  0  0  0  0  0  0
    1.0667    1.4208    0.0000 C   0  0  0  0  0  0  0  0  0  0  0  0
   -2.1708   -4.2042    0.0000 C   0  0  0  0  0  0  0  0  0  0  0  0
   -2.1708   -3.4542    0.0000 C   0  0  0  0  0  0  0  0  0  0  0  0
   -1.5208   -3.0792    0.0000 C   0  0  0  0  0  0  0  0  0  0  0  0
   -1.5208   -2.3292    0.0000 C   0  0  0  0  0  0  0  0  0  0  0  0
   -0.8750   -1.9542    0.0000 C   0  0  0  0  0  0  0  0  0  0  0  0
   -0.8750   -1.2042    0.0000 C   0  0  0  0  0  0  0  0  0  0  0  0
   -0.2250   -0.8292    0.0000 C   0  0  0  0  0  0  0  0  0  0  0  0
   -0.2250   -0.0792    0.0000 C   0  0  0  0  0  0  0  0  0  0  0  0
    0.4167    0.2958    0.0000 C   0  0  0  0  0  0  0  0  0  0  0  0
    0.4167    1.0458    0.0000 C   0  0  0  0  0  0  0  0  0  0  0  0
   -2.8208   -4.5792    0.0000 C   0  0  0  0  0  0  0  0  0  0  0  0
    1.7167    2.5458    0.0000 C   0  0  0  0  0  0  0  0  0  0  0  0
   -3.4708   -7.9667    0.0000 C   0  0  0  0  0  0  0  0  0  0  0  0
  3  2  1  0  0  0  0
  4  2  2  0  0  0  0
  5  2  1  0  0  0  0
  6  3  1  0  0  0  0
  7 10  1  0  0  0  0
  8  5  2  0  0  0  0
  9  4  1  0  0  0  0
 10 20  1  0  0  0  0
 11 21  1  0  0  0  0
 12 11  1  0  0  0  0
 13 12  1  0  0  0  0
 14 13  1  0  0  0  0
 15 14  1  0  0  0  0
 16 15  1  0  0  0  0
 17 16  1  0  0  0  0
 18 17  1  0  0  0  0
 19 18  1  0  0  0  0
 20 19  1  0  0  0  0
 21  6  1  0  0  0  0
 22  7  1  0  0  0  0
 23  9  2  0  0  0  0
  8 23  1  0  0  0  0
M  CHG  2   1  -1   2   1
M  END
> <#>
46

> <PLATE>
LAT001

> <ROW>
F

> <COL>
7

> <COORD>
F07

> <LATID>
LAT001F07

> <Supplier>
Microsource

> <Suplier_CAT#>
01500169

> <Name>
Cetylpyridinium Chloride

> <Concentration_(mM)>
2.5

> <IC50_(µM)>
10

> <Yeast_Active?>
+

> <Pubchem_CID>
31239

> <Description>
Antiinfective (Topical)

$$$$
