
  -ISIS-  08130814242D

 26 28  0  0  0  0  0  0  0  0999 V2000
    2.0542   -1.7542    0.0000 N   0  0  3  0  0  0  0  0  0  0  0  0
    2.7667   -1.9875    0.0000 C   0  0  0  0  0  0  0  0  0  0  0  0
    2.0542   -1.0042    0.0000 C   0  0  0  0  0  0  0  0  0  0  0  0
    2.7667   -0.7792    0.0000 N   0  0  0  0  0  0  0  0  0  0  0  0
    3.2042   -1.3792    0.0000 C   0  0  0  0  0  0  0  0  0  0  0  0
    3.0042   -2.7000    0.0000 C   0  0  0  0  0  0  0  0  0  0  0  0
    1.4000   -2.1292    0.0000 C   0  0  0  0  0  0  0  0  0  0  0  0
    1.4000   -0.6292    0.0000 C   0  0  0  0  0  0  0  0  0  0  0  0
    0.7542   -1.7542    0.0000 C   0  0  0  0  0  0  0  0  0  0  0  0
    0.7542   -1.0042    0.0000 C   0  0  0  0  0  0  0  0  0  0  0  0
    3.9667   -3.5667    0.0000 N   0  0  0  0  0  0  0  0  0  0  0  0
    3.7375   -2.8542    0.0000 N   0  0  0  0  0  0  0  0  0  0  0  0
    2.5000   -3.2667    0.0000 O   0  0  0  0  0  0  0  0  0  0  0  0
    8.4042   -2.5167    0.0000 C   0  0  0  0  0  0  0  0  0  0  0  0
    4.7000   -3.7292    0.0000 C   0  0  0  0  0  0  0  0  0  0  0  0
    8.9042   -1.9667    0.0000 C   0  0  0  0  0  0  0  0  0  0  0  0
    0.1042   -2.1375    0.0000 Br  0  0  0  0  0  0  0  0  0  0  0  0
    3.9542   -1.3792    0.0000 C   0  0  0  0  0  0  0  0  0  0  0  0
    5.9375   -3.3292    0.0000 C   0  0  0  0  0  0  0  0  0  0  0  0
    5.2000   -3.1667    0.0000 C   0  0  0  0  0  0  0  0  0  0  0  0
    6.4375   -2.7667    0.0000 C   0  0  0  0  0  0  0  0  0  0  0  0
    7.1667   -2.9292    0.0000 O   0  0  0  0  0  0  0  0  0  0  0  0
    5.4667   -1.9000    0.0000 C   0  0  0  0  0  0  0  0  0  0  0  0
    7.6667   -2.3667    0.0000 C   0  0  0  0  0  0  0  0  0  0  0  0
    4.9667   -2.4542    0.0000 C   0  0  0  0  0  0  0  0  0  0  0  0
    6.2042   -2.0542    0.0000 C   0  0  0  0  0  0  0  0  0  0  0  0
  2  1  1  0  0  0  0
  3  1  1  0  0  0  0
  4  3  2  0  0  0  0
  5  2  2  0  0  0  0
  6  2  1  0  0  0  0
  7  1  1  0  0  0  0
  8  3  1  0  0  0  0
  9  7  2  0  0  0  0
 10  9  1  0  0  0  0
 11 12  1  0  0  0  0
 12  6  1  0  0  0  0
 13  6  2  0  0  0  0
 14 24  1  0  0  0  0
 15 11  2  0  0  0  0
 16 14  2  0  0  0  0
 17  9  1  0  0  0  0
 18  5  1  0  0  0  0
 19 20  1  0  0  0  0
 20 15  1  0  0  0  0
 21 19  2  0  0  0  0
 22 21  1  0  0  0  0
 23 25  1  0  0  0  0
 24 22  1  0  0  0  0
 25 20  2  0  0  0  0
 26 23  2  0  0  0  0
  5  4  1  0  0  0  0
  8 10  2  0  0  0  0
 21 26  1  0  0  0  0
M  END
> <#>
655

> <PLATE>
LAT009

> <ROW>
G

> <COL>
3

> <COORD>
G03

> <LATID>
LAT009G03

> <Supplier>
Chembridge

> <Suplier_CAT#>
5527234

> <Name>
Novel

> <Sec_Name>
151_H05

> <Concentration_(mM)>
2.5

> <IC50_(µM)>
45

> <Yeast_Active?>
-

> <Pubchem_CID>
2247479

$$$$
