
  -ISIS-  08130814242D

 24 26  0  0  0  0  0  0  0  0999 V2000
    0.7542   -1.5000    0.0000 C   0  0  0  0  0  0  0  0  0  0  0  0
    0.7542   -2.3167    0.0000 C   0  0  0  0  0  0  0  0  0  0  0  0
    0.0375   -1.0792    0.0000 C   0  0  3  0  0  0  0  0  0  0  0  0
    0.0375   -0.2375    0.0000 C   0  0  0  0  0  0  0  0  0  0  0  0
   -0.6833   -1.5000    0.0000 C   0  0  0  0  0  0  0  0  0  0  0  0
   -0.6833   -2.3167    0.0000 C   0  0  0  0  0  0  0  0  0  0  0  0
    0.0375   -2.7375    0.0000 O   0  0  0  0  0  0  0  0  0  0  0  0
   -0.6833    0.1625    0.0000 S   0  0  0  0  0  0  0  0  0  0  0  0
    0.6542    0.3208    0.0000 C   0  0  0  0  0  0  0  0  0  0  0  0
    0.3000    1.0625    0.0000 C   0  0  0  0  0  0  0  0  0  0  0  0
   -0.5000    0.9625    0.0000 C   0  0  0  0  0  0  0  0  0  0  0  0
    1.4792   -1.0792    0.0000 C   0  0  0  0  0  0  0  0  0  0  0  0
   -1.3833   -1.0792    0.0000 C   0  0  0  0  0  0  0  0  0  0  0  0
    1.4792   -2.7375    0.0000 N   0  0  0  0  0  0  0  0  0  0  0  0
    1.4792   -0.2375    0.0000 O   0  0  0  0  0  0  0  0  0  0  0  0
   -1.3833   -0.2375    0.0000 O   0  0  0  0  0  0  0  0  0  0  0  0
    0.7042    2.0208    0.0000 Br  0  0  0  0  0  0  0  0  0  0  0  0
   -1.3833   -2.7375    0.0000 C   0  0  0  0  0  0  0  0  0  0  0  0
    2.1917   -1.4792    0.0000 O   0  0  0  0  0  0  0  0  0  0  0  0
   -0.9958    1.8000    0.0000 C   0  0  0  0  0  0  0  0  0  0  0  0
   -2.1000   -1.5000    0.0000 C   0  0  0  0  0  0  0  0  0  0  0  0
   -2.1000   -2.3167    0.0000 C   0  0  0  0  0  0  0  0  0  0  0  0
    2.9167   -1.0792    0.0000 C   0  0  0  0  0  0  0  0  0  0  0  0
    3.6167   -1.5000    0.0000 C   0  0  0  0  0  0  0  0  0  0  0  0
  2  1  2  0  0  0  0
  3  1  1  0  0  0  0
  4  3  1  0  0  0  0
  5  3  1  0  0  0  0
  6  5  2  0  0  0  0
  7  2  1  0  0  0  0
  8  4  1  0  0  0  0
  9  4  2  0  0  0  0
 10  9  1  0  0  0  0
 11  8  1  0  0  0  0
 12  1  1  0  0  0  0
 13  5  1  0  0  0  0
 14  2  1  0  0  0  0
 15 12  2  0  0  0  0
 16 13  2  0  0  0  0
 17 10  1  0  0  0  0
 18  6  1  0  0  0  0
 19 12  1  0  0  0  0
 20 11  1  0  0  0  0
 21 13  1  0  0  0  0
 22 21  1  0  0  0  0
 23 19  1  0  0  0  0
 24 23  1  0  0  0  0
  7  6  1  0  0  0  0
 11 10  2  0  0  0  0
 22 18  1  0  0  0  0
M  END
> <#>
2064

> <PLATE>
LAT026

> <ROW>
H

> <COL>
9

> <COORD>
H09

> <LATID>
LAT026H09

> <Supplier>
Chembridge

> <Suplier_CAT#>
5649707

> <Sec_Name>
201_B03

> <Concentration_(mM)>
2.5

> <IC50_(µM)>
24

> <Yeast_Active?>
-

> <Pubchem_CID>
1078796

$$$$
