
  -ISIS-  08130814242D

 32 36  0  0  0  0  0  0  0  0999 V2000
   -0.0875    0.5208    0.0000 N   0  0  3  0  0  0  0  0  0  0  0  0
    0.0792    1.7208    0.0000 C   0  0  3  0  0  0  0  0  0  0  0  0
    0.4375    1.0583    0.0000 C   0  0  0  0  0  0  0  0  0  0  0  0
   -0.6583    1.5958    0.0000 C   0  0  0  0  0  0  0  0  0  0  0  0
   -0.7583    0.8500    0.0000 C   0  0  0  0  0  0  0  0  0  0  0  0
    0.9292    2.2958    0.0000 C   0  0  0  0  0  0  0  0  0  0  0  0
    0.0417   -0.2167    0.0000 C   0  0  0  0  0  0  0  0  0  0  0  0
    1.6500    1.9208    0.0000 C   0  0  0  0  0  0  0  0  0  0  0  0
    2.2792    2.3208    0.0000 C   0  0  0  0  0  0  0  0  0  0  0  0
   -0.5375   -0.6917    0.0000 C   0  0  0  0  0  0  0  0  0  0  0  0
    1.1792    0.9583    0.0000 O   0  0  0  0  0  0  0  0  0  0  0  0
   -0.4083   -1.4292    0.0000 C   0  0  0  0  0  0  0  0  0  0  0  0
    2.9417    1.9750    0.0000 C   0  0  0  0  0  0  0  0  0  0  0  0
    1.6792    1.2958    0.0000 O   0  0  0  0  0  0  0  0  0  0  0  0
   -0.1583    2.5833    0.0000 O   0  0  0  0  0  0  0  0  0  0  0  0
   -0.9833   -1.9167    0.0000 C   0  0  0  0  0  0  0  0  0  0  0  0
   -1.2458    2.0583    0.0000 C   0  0  0  0  0  0  0  0  0  0  0  0
    2.9792    1.2250    0.0000 O   0  0  0  0  0  0  0  0  0  0  0  0
   -1.4583    0.5708    0.0000 C   0  0  0  0  0  0  0  0  0  0  0  0
   -1.2458   -0.4375    0.0000 C   0  0  0  0  0  0  0  0  0  0  0  0
    2.2500    3.0708    0.0000 C   0  0  0  0  0  0  0  0  0  0  0  0
   -1.8208   -0.9167    0.0000 C   0  0  0  0  0  0  0  0  0  0  0  0
    0.3000   -1.6875    0.0000 C   0  0  0  0  0  0  0  0  0  0  0  0
   -1.6875   -1.6542    0.0000 C   0  0  0  0  0  0  0  0  0  0  0  0
    3.5792    2.3833    0.0000 C   0  0  0  0  0  0  0  0  0  0  0  0
   -0.8500   -2.6542    0.0000 C   0  0  0  0  0  0  0  0  0  0  0  0
   -1.9375    1.7833    0.0000 C   0  0  0  0  0  0  0  0  0  0  0  0
   -2.0458    1.0333    0.0000 C   0  0  0  0  0  0  0  0  0  0  0  0
    2.8792    3.4833    0.0000 C   0  0  0  0  0  0  0  0  0  0  0  0
    0.4292   -2.4292    0.0000 C   0  0  0  0  0  0  0  0  0  0  0  0
    3.5417    3.1333    0.0000 C   0  0  0  0  0  0  0  0  0  0  0  0
   -0.1458   -2.9125    0.0000 C   0  0  0  0  0  0  0  0  0  0  0  0
  2  3  1  0  0  0  0
  3  1  1  0  0  0  0
  4  5  2  0  0  0  0
  5  1  1  0  0  0  0
  6  2  1  0  0  0  0
  7  1  1  0  0  0  0
  8  6  1  0  0  0  0
  9  8  1  0  0  0  0
 10  7  1  0  0  0  0
 11  3  2  0  0  0  0
 12 10  2  0  0  0  0
 13  9  1  0  0  0  0
 14  8  2  0  0  0  0
 15  2  1  0  0  0  0
 16 12  1  0  0  0  0
 17  4  1  0  0  0  0
 18 13  1  0  0  0  0
 19  5  1  0  0  0  0
 20 10  1  0  0  0  0
 21  9  2  0  0  0  0
 22 20  2  0  0  0  0
 23 12  1  0  0  0  0
 24 22  1  0  0  0  0
 25 13  2  0  0  0  0
 26 16  1  0  0  0  0
 27 28  1  0  0  0  0
 28 19  2  0  0  0  0
 29 21  1  0  0  0  0
 30 23  2  0  0  0  0
 31 29  2  0  0  0  0
 32 30  1  0  0  0  0
  2  4  1  0  0  0  0
 17 27  2  0  0  0  0
 16 24  2  0  0  0  0
 26 32  2  0  0  0  0
 25 31  1  0  0  0  0
M  END
> <#>
1287

> <PLATE>
LAT017

> <ROW>
G

> <COL>
2

> <COORD>
G02

> <LATID>
LAT017G02

> <Supplier>
Chembridge

> <Suplier_CAT#>
6821138

> <Name>
Novel

> <Concentration_(mM)>
2.5

> <IC50_(µM)>
inactive

> <Yeast_Active?>
-

> <Pubchem_CID>
1216221

$$$$
