
  -ISIS-  08130814242D

 22 24  0  0  0  0  0  0  0  0999 V2000
   -3.0458    0.2958    0.0000 N   0  0  3  0  0  0  0  0  0  0  0  0
   -1.4625    0.4500    0.0000 C   0  0  0  0  0  0  0  0  0  0  0  0
   -2.8458    1.2500    0.0000 N   0  0  0  0  0  0  0  0  0  0  0  0
   -2.1833   -0.2042    0.0000 C   0  0  0  0  0  0  0  0  0  0  0  0
   -1.8625    1.3500    0.0000 C   0  0  0  0  0  0  0  0  0  0  0  0
   -0.4833    0.2708    0.0000 C   0  0  0  0  0  0  0  0  0  0  0  0
    0.1792    1.0125    0.0000 N   0  0  0  0  0  0  0  0  0  0  0  0
   -3.9000   -0.2042    0.0000 C   0  0  0  0  0  0  0  0  0  0  0  0
   -2.0625   -1.2042    0.0000 O   0  0  0  0  0  0  0  0  0  0  0  0
    1.1375    0.8333    0.0000 C   0  0  0  0  0  0  0  0  0  0  0  0
    1.4542   -0.1042    0.0000 C   0  0  0  0  0  0  0  0  0  0  0  0
    0.8375   -0.8667    0.0000 O   0  0  0  0  0  0  0  0  0  0  0  0
   -1.3625    2.2125    0.0000 C   0  0  0  0  0  0  0  0  0  0  0  0
   -3.9000   -1.2042    0.0000 C   0  0  0  0  0  0  0  0  0  0  0  0
   -4.7458    0.2958    0.0000 C   0  0  0  0  0  0  0  0  0  0  0  0
    1.7792    1.5708    0.0000 C   0  0  0  0  0  0  0  0  0  0  0  0
    2.4167   -0.2875    0.0000 C   0  0  0  0  0  0  0  0  0  0  0  0
    2.7375    1.3958    0.0000 C   0  0  0  0  0  0  0  0  0  0  0  0
   -5.6000   -0.2042    0.0000 C   0  0  0  0  0  0  0  0  0  0  0  0
   -4.7458   -1.6875    0.0000 C   0  0  0  0  0  0  0  0  0  0  0  0
    3.0542    0.4708    0.0000 C   0  0  0  0  0  0  0  0  0  0  0  0
   -5.6000   -1.2042    0.0000 C   0  0  0  0  0  0  0  0  0  0  0  0
  2  4  1  0  0  0  0
  3  1  1  0  0  0  0
  4  1  1  0  0  0  0
  5  3  2  0  0  0  0
  6  2  2  0  0  0  0
  7  6  1  0  0  0  0
  8  1  1  0  0  0  0
  9  4  2  0  0  0  0
 10  7  1  0  0  0  0
 11 10  1  0  0  0  0
 12 11  1  0  0  0  0
 13  5  1  0  0  0  0
 14  8  1  0  0  0  0
 15  8  2  0  0  0  0
 16 10  2  0  0  0  0
 17 11  2  0  0  0  0
 18 16  1  0  0  0  0
 19 15  1  0  0  0  0
 20 14  2  0  0  0  0
 21 18  2  0  0  0  0
 22 19  2  0  0  0  0
  2  5  1  0  0  0  0
 22 20  1  0  0  0  0
 17 21  1  0  0  0  0
M  END
> <#>
1076

> <PLATE>
LAT014

> <ROW>
D

> <COL>
6

> <COORD>
D06

> <LATID>
LAT014D06

> <Supplier>
Chembridge

> <Suplier_CAT#>
5617958

> <Name>
Novel

> <Concentration_(mM)>
2.5

> <IC50_(µM)>
>100

> <Yeast_Active?>
-

> <Pubchem_CID>
NULL

$$$$
