
  -ISIS-  08130814242D

 11 11  0  0  0  0  0  0  0  0999 V2000
    5.1986   -3.5416    0.0000 C   0  0  0  0  0  0  0  0  0  0  0  0
    5.1974   -4.3690    0.0000 C   0  0  0  0  0  0  0  0  0  0  0  0
    5.9122   -4.7819    0.0000 C   0  0  0  0  0  0  0  0  0  0  0  0
    6.6287   -4.3685    0.0000 C   0  0  0  0  0  0  0  0  0  0  0  0
    6.6258   -3.5380    0.0000 C   0  0  0  0  0  0  0  0  0  0  0  0
    5.9104   -3.1289    0.0000 C   0  0  0  0  0  0  0  0  0  0  0  0
    7.3387   -3.1228    0.0000 C   0  0  0  0  0  0  0  0  0  0  0  0
    4.4826   -4.7809    0.0000 Hg  0  0  0  0  0  0  0  0  0  0  0  0
    8.0529   -3.5304    0.0000 O   0  0  0  0  0  0  0  0  0  0  0  0
    7.3337   -2.2956    0.0000 O   0  0  0  0  0  0  0  0  0  0  0  0
    3.6542   -4.7792    0.0000 Cl  0  0  0  0  0  0  0  0  0  0  0  0
  5  6  2  0  0  0  0
  6  1  1  0  0  0  0
  1  2  2  0  0  0  0
  5  7  1  0  0  0  0
  3  4  2  0  0  0  0
  2  8  1  0  0  0  0
  4  5  1  0  0  0  0
  7  9  1  0  0  0  0
  7 10  2  0  0  0  0
  2  3  1  0  0  0  0
  8 11  1  0  0  0  0
M  END
> <#>
211

> <PLATE>
LAT003

> <ROW>
C

> <COL>
8

> <COORD>
C08

> <LATID>
LAT003C08

> <Supplier>
Sigma

> <Suplier_CAT#>
C 5913

> <Name>
4-Chloromercuribenzoic Acid

> <Concentration_(mM)>
2.5

> <IC50_(µM)>
5.8

> <Yeast_Active?>
-

> <Pubchem_CID>
1730

> <Description>
Carboxy- and aminopeptidase inhibitor

$$$$
