
  -ISIS-  08130814242D

 26 25  0  0  0  0  0  0  0  0999 V2000
   -2.6208    0.9833    0.0000 C   0  0  0  0  0  0  0  0  0  0  0  0
   -2.6000   -0.0292    0.0000 C   0  0  0  0  0  0  0  0  0  0  0  0
   -2.9000    0.4625    0.0000 C   0  0  0  0  0  0  0  0  0  0  0  0
   -1.7458    0.4625    0.0000 C   0  0  0  0  0  0  0  0  0  0  0  0
   -2.0208   -0.0292    0.0000 C   0  0  0  0  0  0  0  0  0  0  0  0
   -2.0458    0.9833    0.0000 C   0  0  0  0  0  0  0  0  0  0  0  0
   -1.1625    0.4458    0.0000 C   0  0  0  0  0  0  0  0  0  0  0  0
   -2.8833   -0.5542    0.0000 C   0  0  3  0  0  0  0  0  0  0  0  0
   -2.9000    1.5000    0.0000 C   0  0  3  0  0  0  0  0  0  0  0  0
   -0.8625   -0.0792    0.0000 C   0  0  0  0  0  0  0  0  0  0  0  0
   -0.8625    0.9458    0.0000 O   0  0  0  0  0  0  0  0  0  0  0  0
   -0.2833   -0.0792    0.0000 N   0  0  3  0  0  0  0  0  0  0  0  0
   -3.5000    0.4458    0.0000 O   0  0  0  0  0  0  0  0  0  0  0  0
   -3.1625   -1.0792    0.0000 C   0  0  0  0  0  0  0  0  0  0  0  0
   -2.3625   -0.8375    0.0000 C   0  0  0  0  0  0  0  0  0  0  0  0
   -3.2000    2.0208    0.0000 C   0  0  0  0  0  0  0  0  0  0  0  0
   -2.3833    1.7833    0.0000 C   0  0  0  0  0  0  0  0  0  0  0  0
   -3.4208    1.2000    0.0000 C   0  0  0  0  0  0  0  0  0  0  0  0
   -3.4000   -0.2792    0.0000 C   0  0  0  0  0  0  0  0  0  0  0  0
    0.0167   -0.5792    0.0000 C   0  0  0  0  0  0  0  0  0  0  0  0
    0.0000    0.4458    0.0000 C   0  0  0  0  0  0  0  0  0  0  0  0
    0.6167   -0.5542    0.0000 C   0  0  0  0  0  0  0  0  0  0  0  0
   -0.3000    0.9458    0.0000 C   0  0  0  0  0  0  0  0  0  0  0  0
    0.0000    1.4625    0.0000 C   0  0  0  0  0  0  0  0  0  0  0  0
    0.9000   -1.0792    0.0000 C   0  0  0  0  0  0  0  0  0  0  0  0
   -0.9208    2.3833    0.0000 Br  0  0  0  0  0  0  0  0  0  0  0  0
  2  3  1  0  0  0  0
  3  1  2  0  0  0  0
  4  6  2  0  0  0  0
  5  4  1  0  0  0  0
  6  1  1  0  0  0  0
  7  4  1  0  0  0  0
  8  2  1  0  0  0  0
  9  1  1  0  0  0  0
 10  7  1  0  0  0  0
 11  7  2  0  0  0  0
 12 10  1  0  0  0  0
 13  3  1  0  0  0  0
 14  8  1  0  0  0  0
 15  8  1  0  0  0  0
 16  9  1  0  0  0  0
 17  9  1  0  0  0  0
 18  9  1  0  0  0  0
 19  8  1  0  0  0  0
 20 12  1  0  0  0  0
 21 12  1  0  0  0  0
 22 20  1  0  0  0  0
 23 21  1  0  0  0  0
 24 23  1  0  0  0  0
 25 22  1  0  0  0  0
  5  2  2  0  0  0  0
M  END
> <#>
1341

> <PLATE>
LAT017

> <ROW>
E

> <COL>
9

> <COORD>
E09

> <LATID>
LAT017E09

> <Supplier>
Chembridge

> <Suplier_CAT#>
7394142

> <Name>
Novel

> <Concentration_(mM)>
2.5

> <IC50_(µM)>
>100

> <Yeast_Active?>
-

> <Pubchem_CID>
2938240

$$$$
