
  -ISIS-  08130814242D

 25 26  0  0  0  0  0  0  0  0999 V2000
   -0.8208   -1.0792    0.0000 C   0  0  0  0  0  0  0  0  0  0  0  0
    2.3000   -0.3167    0.0000 C   0  0  0  0  0  0  0  0  0  0  0  0
    0.5292   -0.2875    0.0000 N   0  0  0  0  0  0  0  0  0  0  0  0
    1.8500   -1.0875    0.0000 C   0  0  0  0  0  0  0  0  0  0  0  0
   -1.7208   -1.0792    0.0000 C   0  0  3  0  0  0  0  0  0  0  0  0
   -2.1625   -0.3042    0.0000 O   0  0  0  0  0  0  0  0  0  0  0  0
   -0.3833   -0.2875    0.0000 N   0  0  0  0  0  0  0  0  0  0  0  0
   -0.3833   -1.8375    0.0000 O   0  0  0  0  0  0  0  0  0  0  0  0
   -3.0333   -0.3042    0.0000 C   0  0  0  0  0  0  0  0  0  0  0  0
   -3.4708    0.4625    0.0000 C   0  0  0  0  0  0  0  0  0  0  0  0
    3.1667   -0.3167    0.0000 C   0  0  0  0  0  0  0  0  0  0  0  0
    0.9875   -1.0875    0.0000 C   0  0  0  0  0  0  0  0  0  0  0  0
    4.5000    0.4500    0.0000 C   0  0  0  0  0  0  0  0  0  0  0  0
    4.9292   -0.3292    0.0000 C   0  0  0  0  0  0  0  0  0  0  0  0
   -4.3500    0.4625    0.0000 C   0  0  0  0  0  0  0  0  0  0  0  0
    1.8792    0.4500    0.0000 O   0  0  0  0  0  0  0  0  0  0  0  0
   -4.7833    1.2333    0.0000 Cl  0  0  0  0  0  0  0  0  0  0  0  0
    3.5667    0.4625    0.0000 C   0  0  0  0  0  0  0  0  0  0  0  0
    2.3000   -1.8667    0.0000 C   0  0  0  0  0  0  0  0  0  0  0  0
    3.2000   -1.8667    0.0000 C   0  0  0  0  0  0  0  0  0  0  0  0
   -4.3625   -1.0667    0.0000 C   0  0  0  0  0  0  0  0  0  0  0  0
   -3.4833   -1.0667    0.0000 C   0  0  0  0  0  0  0  0  0  0  0  0
    3.6375   -1.0875    0.0000 C   0  0  0  0  0  0  0  0  0  0  0  0
   -2.1708   -1.8375    0.0000 C   0  0  0  0  0  0  0  0  0  0  0  0
   -4.8000   -0.3042    0.0000 C   0  0  0  0  0  0  0  0  0  0  0  0
  2  4  1  0  0  0  0
  3  7  1  0  0  0  0
  4 12  1  0  0  0  0
  5  1  1  0  0  0  0
  6  5  1  0  0  0  0
  7  1  1  0  0  0  0
  8  1  2  0  0  0  0
  9  6  1  0  0  0  0
 10  9  1  0  0  0  0
 11  2  2  0  0  0  0
 12  3  2  0  0  0  0
 13 18  1  0  0  0  0
 14 13  2  0  0  0  0
 15 10  2  0  0  0  0
 16  2  1  0  0  0  0
 17 15  1  0  0  0  0
 18 11  1  0  0  0  0
 19  4  2  0  0  0  0
 20 19  1  0  0  0  0
 21 22  1  0  0  0  0
 22  9  2  0  0  0  0
 23 20  2  0  0  0  0
 24  5  1  0  0  0  0
 25 21  2  0  0  0  0
 25 15  1  0  0  0  0
 23 11  1  0  0  0  0
M  END
> <#>
666

> <PLATE>
LAT009

> <ROW>
B

> <COL>
5

> <COORD>
B05

> <LATID>
LAT009B05

> <Supplier>
Chembridge

> <Suplier_CAT#>
5529681

> <Name>
Novel

> <Sec_Name>
152_F09

> <Concentration_(mM)>
2.5

> <IC50_(µM)>
46

> <Yeast_Active?>
-

> <Pubchem_CID>
NULL

$$$$
