
  -ISIS-  08130814242D

 19 21  0  0  0  0  0  0  0  0999 V2000
    4.3500   -2.4500    0.0000 C   0  0  0  0  0  0  0  0  0  0  0  0
    5.3292   -3.5875    0.0000 N   0  0  0  0  0  0  0  0  0  0  0  0
    4.1042   -3.1542    0.0000 C   0  0  0  0  0  0  0  0  0  0  0  0
    5.0875   -2.3042    0.0000 N   0  0  0  0  0  0  0  0  0  0  0  0
    4.6000   -3.7292    0.0000 N   0  0  0  0  0  0  0  0  0  0  0  0
    8.0292   -3.7292    0.0000 N   0  0  0  0  0  0  0  0  0  0  0  0
    5.8167   -4.1542    0.0000 C   0  0  0  0  0  0  0  0  0  0  0  0
    3.8542   -1.8792    0.0000 C   0  0  0  0  0  0  0  0  0  0  0  0
    6.5542   -4.0167    0.0000 C   0  0  0  0  0  0  0  0  0  0  0  0
    3.3667   -3.3000    0.0000 C   0  0  0  0  0  0  0  0  0  0  0  0
    2.8792   -2.7292    0.0000 C   0  0  0  0  0  0  0  0  0  0  0  0
    5.3375   -1.5875    0.0000 C   0  0  0  0  0  0  0  0  0  0  0  0
    7.5375   -3.1667    0.0000 C   0  0  0  0  0  0  0  0  0  0  0  0
    7.7875   -4.4375    0.0000 C   0  0  0  0  0  0  0  0  0  0  0  0
    3.1167   -2.0167    0.0000 C   0  0  0  0  0  0  0  0  0  0  0  0
    4.1042   -1.1667    0.0000 C   0  0  0  0  0  0  0  0  0  0  0  0
    6.8042   -3.3042    0.0000 C   0  0  0  0  0  0  0  0  0  0  0  0
    7.0500   -4.5792    0.0000 C   0  0  0  0  0  0  0  0  0  0  0  0
    4.8500   -1.0167    0.0000 C   0  0  0  0  0  0  0  0  0  0  0  0
  2  5  1  0  0  0  0
  3  1  1  0  0  0  0
  4  1  2  0  0  0  0
  5  3  1  0  0  0  0
  6 14  1  0  0  0  0
  7  2  2  0  0  0  0
  8  1  1  0  0  0  0
  9  7  1  0  0  0  0
 10  3  2  0  0  0  0
 11 15  2  0  0  0  0
 12  4  1  0  0  0  0
 13 17  1  0  0  0  0
 14 18  2  0  0  0  0
 15  8  1  0  0  0  0
 16  8  2  0  0  0  0
 17  9  2  0  0  0  0
 18  9  1  0  0  0  0
 19 16  1  0  0  0  0
 12 19  2  0  0  0  0
 11 10  1  0  0  0  0
  6 13  2  0  0  0  0
M  END
> <#>
777

> <PLATE>
LAT010

> <ROW>
A

> <COL>
9

> <COORD>
A09

> <LATID>
LAT010A09

> <Supplier>
Chembridge

> <Suplier_CAT#>
5618390

> <Name>
Novel

> <Sec_Name>
186_H06

> <Concentration_(mM)>
2.5

> <IC50_(µM)>
18

> <Yeast_Active?>
-

> <Pubchem_CID>
2855987

$$$$
