
  -ISIS-  08130814242D

 23 23  0  0  0  0  0  0  0  0999 V2000
   -3.2945    0.8921    0.0000 C   0  0  0  0  0  0  0  0  0  0  0  0
   -2.6695   -0.1904    0.0000 C   0  0  0  0  0  0  0  0  0  0  0  0
   -1.4195   -0.1904    0.0000 C   0  0  0  0  0  0  0  0  0  0  0  0
   -0.7945   -1.2729    0.0000 N   0  0  3  0  0  0  0  0  0  0  0  0
   -1.4195   -2.3554    0.0000 C   0  0  0  0  0  0  0  0  0  0  0  0
   -2.6695   -2.3554    0.0000 C   0  0  0  0  0  0  0  0  0  0  0  0
   -3.2945   -3.4380    0.0000 C   0  0  0  0  0  0  0  0  0  0  0  0
    0.4555   -1.2729    0.0000 C   0  0  0  0  0  0  0  0  0  0  0  0
    1.0805   -0.1904    0.0000 C   0  0  0  0  0  0  0  0  0  0  0  0
    2.3305   -0.1904    0.0000 C   0  0  0  0  0  0  0  0  0  0  0  0
    2.9555   -1.2729    0.0000 C   0  0  0  0  0  0  0  0  0  0  0  0
    2.3305   -2.3554    0.0000 C   0  0  0  0  0  0  0  0  0  0  0  0
    1.0805   -2.3554    0.0000 C   0  0  0  0  0  0  0  0  0  0  0  0
    0.4555   -3.4380    0.0000 N   0  3  0  0  0  0  0  0  0  0  0  0
   -0.7945   -3.4380    0.0000 O   0  0  0  0  0  0  0  0  0  0  0  0
    1.0805   -4.5205    0.0000 O   0  5  0  0  0  0  0  0  0  0  0  0
    4.2055   -1.2729    0.0000 S   0  0  3  0  0  0  0  0  0  0  0  0
    4.2055   -2.5229    0.0000 O   0  0  0  0  0  0  0  0  0  0  0  0
    4.2055   -0.0229    0.0000 O   0  0  0  0  0  0  0  0  0  0  0  0
    5.4555   -1.2729    0.0000 N   0  0  0  0  0  0  0  0  0  0  0  0
    0.4555    0.8921    0.0000 N   0  3  0  0  0  0  0  0  0  0  0  0
   -0.7945    0.8921    0.0000 O   0  0  0  0  0  0  0  0  0  0  0  0
    1.0805    1.9747    0.0000 O   0  5  0  0  0  0  0  0  0  0  0  0
  1  2  1  0  0  0  0
  2  3  1  0  0  0  0
  3  4  1  0  0  0  0
  4  5  1  0  0  0  0
  5  6  1  0  0  0  0
  6  7  1  0  0  0  0
  4  8  1  0  0  0  0
  8  9  2  0  0  0  0
  9 10  1  0  0  0  0
 10 11  2  0  0  0  0
 11 12  1  0  0  0  0
 12 13  2  0  0  0  0
  8 13  1  0  0  0  0
 13 14  1  0  0  0  0
 14 15  2  0  0  0  0
 14 16  1  0  0  0  0
 11 17  1  0  0  0  0
 17 18  2  0  0  0  0
 17 19  2  0  0  0  0
 17 20  1  0  0  0  0
  9 21  1  0  0  0  0
 21 22  2  0  0  0  0
 21 23  1  0  0  0  0
M  CHG  4  14   1  16  -1  21   1  23  -1
M  END
> <#>
539

> <PLATE>
LAT007

> <ROW>
C

> <COL>
9

> <COORD>
c09

> <LATID>
LAT007C09

> <Supplier>
ChemService

> <Suplier_CAT#>
Oryzalin

> <Name>
Oryzalin

> <Concentration_(mM)>
2.5

> <IC50_(µM)>
0.094

> <Yeast_Active?>
-

> <Pubchem_CID>
29393

$$$$
