
  -ISIS-  08130814242D

 30 31  0  0  0  0  0  0  0  0999 V2000
    8.6166   -5.2458    0.0000 Cl  0  0  0  0  0  0  0  0  0  0  0  0
    2.9583   -1.5958    0.0000 C   0  0  0  0  0  0  0  0  0  0  0  0
    2.9500   -3.3250    0.0000 N   0  0  3  0  0  0  0  0  0  0  0  0
    2.0879   -4.8257    0.0000 C   0  0  0  0  0  0  0  0  0  0  0  0
    2.0879   -3.8257    0.0000 C   0  0  0  0  0  0  0  0  0  0  0  0
    1.2219   -3.3257    0.0000 C   0  0  0  0  0  0  0  0  0  0  0  0
    0.3560   -3.8257    0.0000 C   0  0  0  0  0  0  0  0  0  0  0  0
    0.3560   -4.8257    0.0000 C   0  0  0  0  0  0  0  0  0  0  0  0
    1.2219   -5.3234    0.0000 C   0  0  0  0  0  0  0  0  0  0  0  0
    2.9538   -5.3257    0.0000 S   0  0  0  0  0  0  0  0  0  0  0  0
    3.8219   -4.8257    0.0000 C   0  0  0  0  0  0  0  0  0  0  0  0
    3.8219   -3.8257    0.0000 C   0  0  0  0  0  0  0  0  0  0  0  0
    4.6879   -5.3257    0.0000 C   0  0  0  0  0  0  0  0  0  0  0  0
    5.5560   -4.8257    0.0000 C   0  0  0  0  0  0  0  0  0  0  0  0
    5.5560   -3.8257    0.0000 C   0  0  0  0  0  0  0  0  0  0  0  0
    4.6879   -3.3257    0.0000 C   0  0  0  0  0  0  0  0  0  0  0  0
    6.1461   -3.4867    0.0000 C   0  0  3  0  0  0  0  0  0  0  0  0
    6.9567   -2.9391    0.0000 F   0  0  0  0  0  0  0  0  0  0  0  0
    6.8634   -3.8757    0.0000 F   0  0  0  0  0  0  0  0  0  0  0  0
    6.1455   -2.5054    0.0000 F   0  0  0  0  0  0  0  0  0  0  0  0
    3.7708   -0.7833    0.0000 C   0  0  0  0  0  0  0  0  0  0  0  0
    4.8583   -1.4166    0.0000 C   0  0  0  0  0  0  0  0  0  0  0  0
    5.8935   -0.5671    0.0000 N   0  0  3  0  0  0  0  0  0  0  0  0
    6.3935   -1.4330    0.0000 C   0  0  0  0  0  0  0  0  0  0  0  0
    7.3935   -1.4330    0.0000 C   0  0  0  0  0  0  0  0  0  0  0  0
    7.8935   -0.5671    0.0000 N   0  0  3  0  0  0  0  0  0  0  0  0
    7.3935    0.2989    0.0000 C   0  0  0  0  0  0  0  0  0  0  0  0
    6.3935    0.2989    0.0000 C   0  0  0  0  0  0  0  0  0  0  0  0
    8.7981   -0.5671    0.0000 C   0  0  0  0  0  0  0  0  0  0  0  0
    8.6166   -5.2458    0.0000 Cl  0  0  0  0  0  0  0  0  0  0  0  0
 13 14  2  0  0  0  0
 14 15  1  0  0  0  0
 15 16  2  0  0  0  0
 12 16  1  0  0  0  0
  3  2  1  0  0  0  0
 15 17  1  0  0  0  0
  4  5  2  0  0  0  0
 17 18  1  0  0  0  0
 17 19  1  0  0  0  0
 17 20  1  0  0  0  0
  5  6  1  0  0  0  0
  2 21  1  0  0  0  0
  6  7  2  0  0  0  0
 21 22  1  0  0  0  0
  7  8  1  0  0  0  0
  8  9  2  0  0  0  0
  4  9  1  0  0  0  0
  4 10  1  0  0  0  0
 10 11  1  0  0  0  0
 11 12  2  0  0  0  0
 12  3  1  0  0  0  0
 23 24  1  0  0  0  0
 24 25  1  0  0  0  0
 25 26  1  0  0  0  0
 26 27  1  0  0  0  0
 27 28  1  0  0  0  0
 23 28  1  0  0  0  0
 26 29  1  0  0  0  0
 22 23  1  0  0  0  0
  5  3  1  0  0  0  0
 11 13  1  0  0  0  0
M  STY  1   1 MUL
M  SLB  1   1   1
M  SAL   1  2   1  30
M  SPA   1  1   1
M  SDI   1  4    8.2000   -5.7700    8.2000   -4.7700
M  SDI   1  4    9.8500   -4.7700    9.8500   -5.7700
M  SMT   1 2
M  END
> <#>
284

> <PLATE>
LAT004

> <ROW>
D

> <COL>
7

> <COORD>
D07

> <LATID>
LAT004D07

> <Supplier>
Sigma

> <Suplier_CAT#>
T 8516

> <Name>
Trifluoperazine Dihydrochloride

> <Concentration_(mM)>
2.5

> <IC50_(µM)>
84

> <Yeast_Active?>
-

> <Pubchem_CID>
5566

> <Description>
Calmodulin antagonist; dopamine receptor antagonist; antipsychotic; sedative

$$$$
