
  -ISIS-  08130814242D

 14 15  0  0  0  0  0  0  0  0999 V2000
    1.1167   -0.1846    0.0000 C   0  0  0  0  0  0  0  0  0  0  0  0
    1.5057    1.0033    0.0000 C   0  0  0  0  0  0  0  0  0  0  0  0
    0.6714    1.9341    0.0000 C   0  0  0  0  0  0  0  0  0  0  0  0
   -0.5519    1.6771    0.0000 C   0  0  0  0  0  0  0  0  0  0  0  0
   -0.9409    0.4891    0.0000 C   0  0  0  0  0  0  0  0  0  0  0  0
   -0.1066   -0.4417    0.0000 C   0  0  0  0  0  0  0  0  0  0  0  0
   -2.1909    0.4920    0.0000 C   0  0  0  0  0  0  0  0  0  0  0  0
   -3.0294   -0.4350    0.0000 C   0  0  0  0  0  0  0  0  0  0  0  0
   -4.2515   -0.1723    0.0000 C   0  0  0  0  0  0  0  0  0  0  0  0
   -4.6350    1.0174    0.0000 C   0  0  0  0  0  0  0  0  0  0  0  0
   -3.7965    1.9444    0.0000 C   0  0  0  0  0  0  0  0  0  0  0  0
   -2.5744    1.6817    0.0000 C   0  0  0  0  0  0  0  0  0  0  0  0
   -1.5615    2.4141    0.0000 I   0  3  0  0  0  0  0  0  0  0  0  0
   -0.6909    2.9240    0.0000 Cl  0  5  0  0  0  0  0  0  0  0  0  0
  1  2  2  0  0  0  0
  2  3  1  0  0  0  0
  3  4  2  0  0  0  0
  4  5  1  0  0  0  0
  5  6  2  0  0  0  0
  1  6  1  0  0  0  0
  5  7  1  0  0  0  0
  7  8  2  0  0  0  0
  8  9  1  0  0  0  0
  9 10  2  0  0  0  0
 10 11  1  0  0  0  0
 11 12  2  0  0  0  0
  7 12  1  0  0  0  0
 12 13  1  0  0  0  0
  4 13  1  0  0  0  0
M  CHG  2  13   1  14  -1
M  END
> <#>
544

> <PLATE>
LAT007

> <ROW>
H

> <COL>
9

> <COORD>
H09

> <LATID>
LAT007H09

> <Supplier>
Sigma

> <Suplier_CAT#>
D2926

> <Name>
Diphenyleneiodonium Chloride

> <Concentration_(mM)>
2.5

> <IC50_(µM)>
0.47

> <Yeast_Active?>
-

> <Pubchem_CID>
3101

$$$$
