
  -ISIS-  08130814242D

 25 28  0  0  0  0  0  0  0  0999 V2000
    3.2292   -2.4792    0.0000 C   0  0  3  0  0  0  0  0  0  0  0  0
    3.2292   -3.2292    0.0000 N   0  0  3  0  0  0  0  0  0  0  0  0
    3.2292   -1.7292    0.0000 C   0  0  0  0  0  0  0  0  0  0  0  0
    3.4792   -4.4167    0.0000 N   0  0  0  0  0  0  0  0  0  0  0  0
    3.7875   -3.7375    0.0000 C   0  0  0  0  0  0  0  0  0  0  0  0
    2.5792   -3.6042    0.0000 C   0  0  0  0  0  0  0  0  0  0  0  0
    2.5792   -1.3542    0.0000 C   0  0  0  0  0  0  0  0  0  0  0  0
    2.7417   -4.3417    0.0000 C   0  0  0  0  0  0  0  0  0  0  0  0
    3.9792   -2.4792    0.0000 C   0  0  0  0  0  0  0  0  0  0  0  0
    2.4792   -2.4792    0.0000 C   0  0  0  0  0  0  0  0  0  0  0  0
    2.3000   -1.4917    0.0000 Cl  0  0  0  0  0  0  0  0  0  0  0  0
    3.8792   -1.3542    0.0000 C   0  0  0  0  0  0  0  0  0  0  0  0
    2.5792   -0.6042    0.0000 C   0  0  0  0  0  0  0  0  0  0  0  0
    4.3542   -3.1292    0.0000 C   0  0  0  0  0  0  0  0  0  0  0  0
    4.3542   -1.8292    0.0000 C   0  0  0  0  0  0  0  0  0  0  0  0
    2.1042   -1.8292    0.0000 C   0  0  0  0  0  0  0  0  0  0  0  0
    2.1042   -3.1292    0.0000 C   0  0  0  0  0  0  0  0  0  0  0  0
    3.8792   -0.6042    0.0000 C   0  0  0  0  0  0  0  0  0  0  0  0
    1.3542   -3.1292    0.0000 C   0  0  0  0  0  0  0  0  0  0  0  0
    1.3542   -1.8292    0.0000 C   0  0  0  0  0  0  0  0  0  0  0  0
    3.2292   -0.2292    0.0000 C   0  0  0  0  0  0  0  0  0  0  0  0
    5.1042   -3.1292    0.0000 C   0  0  0  0  0  0  0  0  0  0  0  0
    5.1042   -1.8292    0.0000 C   0  0  0  0  0  0  0  0  0  0  0  0
    0.9792   -2.4792    0.0000 C   0  0  0  0  0  0  0  0  0  0  0  0
    5.4792   -2.4792    0.0000 C   0  0  0  0  0  0  0  0  0  0  0  0
  2  1  1  0  0  0  0
  3  1  1  0  0  0  0
  4  5  2  0  0  0  0
  5  2  1  0  0  0  0
  6  2  1  0  0  0  0
  7  3  2  0  0  0  0
  8  6  2  0  0  0  0
  9  1  1  0  0  0  0
 10  1  1  0  0  0  0
 11  7  1  0  0  0  0
 12  3  1  0  0  0  0
 13  7  1  0  0  0  0
 14  9  1  0  0  0  0
 15  9  2  0  0  0  0
 16 10  2  0  0  0  0
 17 10  1  0  0  0  0
 18 12  2  0  0  0  0
 19 17  2  0  0  0  0
 20 16  1  0  0  0  0
 21 18  1  0  0  0  0
 22 14  2  0  0  0  0
 23 15  1  0  0  0  0
 24 19  1  0  0  0  0
 25 23  2  0  0  0  0
  8  4  1  0  0  0  0
 20 24  2  0  0  0  0
 22 25  1  0  0  0  0
 13 21  2  0  0  0  0
M  END
> <#>
47

> <PLATE>
LAT001

> <ROW>
G

> <COL>
7

> <COORD>
G07

> <LATID>
LAT001G07

> <Supplier>
Microsource

> <Suplier_CAT#>
01500200

> <Name>
Clotrimazole

> <Concentration_(mM)>
2.5

> <IC50_(µM)>
0.98

> <Yeast_Active?>
+

> <Pubchem_CID>
2812

> <Description>
Antifungal

$$$$
