
  -ISIS-  08130814242D

 16 17  0  0  0  0  0  0  0  0999 V2000
    2.6667   -0.1167    0.0000 N   0  0  0  0  0  0  0  0  0  0  0  0
    1.3667    0.6208    0.0000 N   0  0  0  0  0  0  0  0  0  0  0  0
    2.0167    1.0000    0.0000 C   0  0  0  0  0  0  0  0  0  0  0  0
    2.6667    0.6208    0.0000 N   0  0  0  0  0  0  0  0  0  0  0  0
    3.3167   -0.5000    0.0000 C   0  0  0  0  0  0  0  0  0  0  0  0
    3.9542   -1.6292    0.0000 C   0  0  0  0  0  0  0  0  0  0  0  0
    3.3167   -1.2500    0.0000 C   0  0  0  0  0  0  0  0  0  0  0  0
    3.9542   -2.3792    0.0000 C   0  0  0  0  0  0  0  0  0  0  0  0
    4.6042   -2.7500    0.0000 Br  0  0  0  0  0  0  0  0  0  0  0  0
    2.6542   -2.3667    0.0000 C   0  0  0  0  0  0  0  0  0  0  0  0
    0.7167    1.0000    0.0000 C   0  0  0  0  0  0  0  0  0  0  0  0
    2.0167    1.7500    0.0000 C   0  0  0  0  0  0  0  0  0  0  0  0
    3.3042   -2.7500    0.0000 C   0  0  0  0  0  0  0  0  0  0  0  0
    2.6667   -1.6167    0.0000 C   0  0  0  0  0  0  0  0  0  0  0  0
    0.7167    1.7500    0.0000 C   0  0  0  0  0  0  0  0  0  0  0  0
    1.3667    2.1333    0.0000 C   0  0  0  0  0  0  0  0  0  0  0  0
  2  3  1  0  0  0  0
  3  4  1  0  0  0  0
  4  1  1  0  0  0  0
  5  1  2  0  0  0  0
  6  7  2  0  0  0  0
  7  5  1  0  0  0  0
  8  6  1  0  0  0  0
  9  8  1  0  0  0  0
 10 14  2  0  0  0  0
 11  2  2  0  0  0  0
 12  3  2  0  0  0  0
 13 10  1  0  0  0  0
 14  7  1  0  0  0  0
 15 16  2  0  0  0  0
 16 12  1  0  0  0  0
 13  8  2  0  0  0  0
 15 11  1  0  0  0  0
M  END
> <#>
637

> <PLATE>
LAT008

> <ROW>
E

> <COL>
11

> <COORD>
E11

> <LATID>
LAT008E11

> <Supplier>
Chembridge

> <Suplier_CAT#>
5489507

> <Name>
Novel

> <Sec_Name>
148_C09

> <Concentration_(mM)>
2.5

> <IC50_(µM)>
23

> <Yeast_Active?>
-

> <Pubchem_CID>
2849107

$$$$
