
  -ISIS-  08130814242D

 35 38  0  0  0  0  0  0  0  0999 V2000
   -1.8000    0.7875    0.0000 C   0  0  3  0  0  0  0  0  0  0  0  0
    0.6708    0.7833    0.0000 N   0  0  3  0  0  0  0  0  0  0  0  0
    6.4792   -0.4500    0.0000 C   0  0  3  0  0  0  0  0  0  0  0  0
    5.7667   -0.0375    0.0000 C   0  0  0  0  0  0  0  0  0  0  0  0
   -0.9750    0.7875    0.0000 C   0  0  3  0  0  0  0  0  0  0  0  0
    4.3417    0.7958    0.0000 C   0  0  0  0  0  0  0  0  0  0  0  0
   -1.8083   -0.0333    0.0000 C   0  0  0  0  0  0  0  0  0  0  0  0
   -1.7958    1.6125    0.0000 C   0  0  0  0  0  0  0  0  0  0  0  0
    5.0500   -0.4458    0.0000 C   0  0  0  0  0  0  0  0  0  0  0  0
    5.7708    0.7875    0.0000 C   0  0  0  0  0  0  0  0  0  0  0  0
    4.3417   -0.0292    0.0000 C   0  0  0  0  0  0  0  0  0  0  0  0
    5.0583    1.2042    0.0000 C   0  0  0  0  0  0  0  0  0  0  0  0
   -0.5667    1.5042    0.0000 C   0  0  0  0  0  0  0  0  0  0  0  0
   -0.5667    0.0750    0.0000 C   0  0  0  0  0  0  0  0  0  0  0  0
    0.2542    0.0708    0.0000 C   0  0  0  0  0  0  0  0  0  0  0  0
    0.2625    1.5000    0.0000 C   0  0  0  0  0  0  0  0  0  0  0  0
   -2.6250    0.7958    0.0000 O   0  0  0  0  0  0  0  0  0  0  0  0
    3.6292    1.2083    0.0000 C   0  0  3  0  0  0  0  0  0  0  0  0
    1.4917    0.7833    0.0000 C   0  0  0  0  0  0  0  0  0  0  0  0
    3.6292    2.0333    0.0000 O   0  0  0  0  0  0  0  0  0  0  0  0
    2.2042    1.2000    0.0000 C   0  0  0  0  0  0  0  0  0  0  0  0
    6.8875    0.2708    0.0000 C   0  0  0  0  0  0  0  0  0  0  0  0
    7.1917   -0.8625    0.0000 C   0  0  0  0  0  0  0  0  0  0  0  0
    6.0625   -1.1625    0.0000 C   0  0  0  0  0  0  0  0  0  0  0  0
    2.9167    0.7875    0.0000 C   0  0  0  0  0  0  0  0  0  0  0  0
   -2.5250   -0.4417    0.0000 C   0  0  0  0  0  0  0  0  0  0  0  0
   -1.0958   -0.4500    0.0000 C   0  0  0  0  0  0  0  0  0  0  0  0
   -2.5083    2.0208    0.0000 C   0  0  0  0  0  0  0  0  0  0  0  0
   -1.0833    2.0208    0.0000 C   0  0  0  0  0  0  0  0  0  0  0  0
   -1.1000   -1.2750    0.0000 C   0  0  0  0  0  0  0  0  0  0  0  0
   -1.0833    2.8458    0.0000 C   0  0  0  0  0  0  0  0  0  0  0  0
   -2.5083    2.8458    0.0000 C   0  0  0  0  0  0  0  0  0  0  0  0
   -2.5292   -1.2625    0.0000 C   0  0  0  0  0  0  0  0  0  0  0  0
   -1.7958    3.2667    0.0000 C   0  0  0  0  0  0  0  0  0  0  0  0
   -1.8208   -1.6833    0.0000 C   0  0  0  0  0  0  0  0  0  0  0  0
  2 15  1  0  0  0  0
  3  4  1  0  0  0  0
  4 10  1  0  0  0  0
  5  1  1  0  0  0  0
  6 18  1  0  0  0  0
  7  1  1  0  0  0  0
  8  1  1  0  0  0  0
  9 11  1  0  0  0  0
 10 12  2  0  0  0  0
 11  6  2  0  0  0  0
 12  6  1  0  0  0  0
 13  5  1  0  0  0  0
 14  5  1  0  0  0  0
 15 14  1  0  0  0  0
 16 13  1  0  0  0  0
 17  1  1  0  0  0  0
 18 25  1  0  0  0  0
 19  2  1  0  0  0  0
 20 18  1  0  0  0  0
 21 19  1  0  0  0  0
 22  3  1  0  0  0  0
 23  3  1  0  0  0  0
 24  3  1  0  0  0  0
 25 21  1  0  0  0  0
 26  7  2  0  0  0  0
 27  7  1  0  0  0  0
 28  8  2  0  0  0  0
 29  8  1  0  0  0  0
 30 27  2  0  0  0  0
 31 29  2  0  0  0  0
 32 28  1  0  0  0  0
 33 26  1  0  0  0  0
 34 31  1  0  0  0  0
 35 30  1  0  0  0  0
 16  2  1  0  0  0  0
 32 34  2  0  0  0  0
 33 35  2  0  0  0  0
  9  4  2  0  0  0  0
M  END
> <#>
285

> <PLATE>
LAT004

> <ROW>
E

> <COL>
7

> <COORD>
E07

> <LATID>
LAT004E07

> <Supplier>
Sigma

> <Suplier_CAT#>
T 9652

> <Name>
Terfenadine

> <Concentration_(mM)>
2.5

> <IC50_(µM)>
60

> <Yeast_Active?>
-

> <Pubchem_CID>
5405

> <Description>
Non-sedating H1 histamine receptor antagonist

$$$$
