
  -ISIS-  08130814242D

 26 28  0  0  0  0  0  0  0  0999 V2000
    5.5167   -5.7625    0.0000 N   0  0  3  0  0  0  0  0  0  0  0  0
    6.1667   -6.1417    0.0000 C   0  0  0  0  0  0  0  0  0  0  0  0
    5.5167   -7.2625    0.0000 S   0  0  0  0  0  0  0  0  0  0  0  0
    4.8750   -6.1375    0.0000 C   0  0  0  0  0  0  0  0  0  0  0  0
    6.1667   -6.8875    0.0000 C   0  0  0  0  0  0  0  0  0  0  0  0
    4.8750   -6.8875    0.0000 C   0  0  0  0  0  0  0  0  0  0  0  0
    5.5167   -5.0125    0.0000 C   0  0  0  0  0  0  0  0  0  0  0  0
    5.5167   -3.5125    0.0000 N   0  0  3  0  0  0  0  0  0  0  0  0
    6.8167   -5.7625    0.0000 C   0  0  0  0  0  0  0  0  0  0  0  0
    4.8750   -4.6417    0.0000 C   0  0  0  0  0  0  0  0  0  0  0  0
    4.8750   -3.8875    0.0000 C   0  0  3  0  0  0  0  0  0  0  0  0
    6.8167   -7.2625    0.0000 C   0  0  0  0  0  0  0  0  0  0  0  0
    7.4667   -6.1417    0.0000 C   0  0  0  0  0  0  0  0  0  0  0  0
    8.1167   -5.7625    0.0000 S   0  0  0  0  0  0  0  0  0  0  0  0
    7.4667   -6.8875    0.0000 C   0  0  0  0  0  0  0  0  0  0  0  0
    6.1750   -3.9000    0.0000 C   0  0  0  0  0  0  0  0  0  0  0  0
    5.5167   -2.7625    0.0000 C   0  0  0  0  0  0  0  0  0  0  0  0
    4.2292   -5.7625    0.0000 C   0  0  0  0  0  0  0  0  0  0  0  0
    4.2292   -7.2625    0.0000 C   0  0  0  0  0  0  0  0  0  0  0  0
    4.2250   -3.5125    0.0000 C   0  0  0  0  0  0  0  0  0  0  0  0
    8.7667   -6.1375    0.0000 C   0  0  0  0  0  0  0  0  0  0  0  0
    4.8750   -2.3875    0.0000 C   0  0  0  0  0  0  0  0  0  0  0  0
    3.5792   -6.1375    0.0000 C   0  0  0  0  0  0  0  0  0  0  0  0
    3.5792   -6.8875    0.0000 C   0  0  0  0  0  0  0  0  0  0  0  0
    4.2250   -2.7625    0.0000 C   0  0  0  0  0  0  0  0  0  0  0  0
    7.1042   -4.1167    0.0000 Cl  0  0  0  0  0  0  0  0  0  0  0  0
  2  1  1  0  0  0  0
  3  6  1  0  0  0  0
  4  1  1  0  0  0  0
  5  2  2  0  0  0  0
  6  4  2  0  0  0  0
  7  1  1  0  0  0  0
  8 11  1  0  0  0  0
  9  2  1  0  0  0  0
 10  7  1  0  0  0  0
 11 10  1  0  0  0  0
 12  5  1  0  0  0  0
 13  9  2  0  0  0  0
 14 13  1  0  0  0  0
 15 13  1  0  0  0  0
 16  8  1  0  0  0  0
 17  8  1  0  0  0  0
 18  4  1  0  0  0  0
 19  6  1  0  0  0  0
 20 11  1  0  0  0  0
 21 14  1  0  0  0  0
 22 25  1  0  0  0  0
 23 18  2  0  0  0  0
 24 23  1  0  0  0  0
 25 20  1  0  0  0  0
  3  5  1  0  0  0  0
 19 24  2  0  0  0  0
 12 15  2  0  0  0  0
 17 22  1  0  0  0  0
M  END
> <#>
98

> <PLATE>
LAT002

> <ROW>
B

> <COL>
4

> <COORD>
B04

> <LATID>
LAT002B04

> <Supplier>
Microsource

> <Suplier_CAT#>
01500575

> <Name>
Thioridazine Hydrochloride

> <Concentration_(mM)>
2.5

> <IC50_(µM)>
71

> <Yeast_Active?>
-

> <Pubchem_CID>
5452

> <Description>
Antipsychotic

$$$$
