
  -ISIS-  08130814242D

 29 30  0  0  0  0  0  0  0  0999 V2000
    3.8292   -2.1750    0.0000 N   0  3  0  0  0  0  0  0  0  0  0  0
    4.4167   -2.5167    0.0000 O   0  5  0  0  0  0  0  0  0  0  0  0
    3.8292   -1.4917    0.0000 O   0  0  0  0  0  0  0  0  0  0  0  0
    3.2375   -2.5125    0.0000 O   0  0  0  0  0  0  0  0  0  0  0  0
    6.8000   -3.1125    0.0000 C   0  0  0  0  0  0  0  0  0  0  0  0
    7.1750   -3.7625    0.0000 C   0  0  0  0  0  0  0  0  0  0  0  0
    6.0500   -1.8167    0.0000 N   0  0  3  0  0  0  0  0  0  0  0  0
    6.4375   -0.6667    0.0000 N   0  0  0  0  0  0  0  0  0  0  0  0
    6.0500   -3.1125    0.0000 C   0  0  3  0  0  0  0  0  0  0  0  0
    4.9250   -5.0625    0.0000 C   0  0  0  0  0  0  0  0  0  0  0  0
    4.5500   -4.4125    0.0000 C   0  0  0  0  0  0  0  0  0  0  0  0
    5.8250   -1.1042    0.0000 C   0  0  0  0  0  0  0  0  0  0  0  0
    7.9250   -3.7625    0.0000 C   0  0  0  0  0  0  0  0  0  0  0  0
    7.1750   -2.4667    0.0000 C   0  0  0  0  0  0  0  0  0  0  0  0
    4.5500   -5.7125    0.0000 C   0  0  0  0  0  0  0  0  0  0  0  0
    5.6750   -2.4667    0.0000 C   0  0  0  0  0  0  0  0  0  0  0  0
    5.6750   -3.7625    0.0000 O   0  0  0  0  0  0  0  0  0  0  0  0
    6.8792   -1.1042    0.0000 C   0  0  0  0  0  0  0  0  0  0  0  0
    6.6500   -1.8167    0.0000 C   0  0  0  0  0  0  0  0  0  0  0  0
    4.9250   -3.7625    0.0000 C   0  0  0  0  0  0  0  0  0  0  0  0
    3.8000   -4.4125    0.0000 C   0  0  0  0  0  0  0  0  0  0  0  0
    8.3000   -3.1125    0.0000 C   0  0  0  0  0  0  0  0  0  0  0  0
    3.8000   -5.7125    0.0000 C   0  0  0  0  0  0  0  0  0  0  0  0
    6.8000   -4.4125    0.0000 Cl  0  0  0  0  0  0  0  0  0  0  0  0
    5.6750   -5.0625    0.0000 Cl  0  0  0  0  0  0  0  0  0  0  0  0
    7.9250   -2.4667    0.0000 C   0  0  0  0  0  0  0  0  0  0  0  0
    3.4250   -5.0542    0.0000 C   0  0  0  0  0  0  0  0  0  0  0  0
    3.4250   -6.3667    0.0000 Cl  0  0  0  0  0  0  0  0  0  0  0  0
    9.0500   -3.1125    0.0000 Cl  0  0  0  0  0  0  0  0  0  0  0  0
  2  1  1  0  0  0  0
  3  1  2  0  0  0  0
  4  1  1  0  0  0  0
  6  5  1  0  0  0  0
  7 16  1  0  0  0  0
  8 12  2  0  0  0  0
  9  5  1  0  0  0  0
 10 11  2  0  0  0  0
 11 20  1  0  0  0  0
 12  7  1  0  0  0  0
 13  6  2  0  0  0  0
 14  5  2  0  0  0  0
 15 10  1  0  0  0  0
 16  9  1  0  0  0  0
 17  9  1  0  0  0  0
 18 19  2  0  0  0  0
 19  7  1  0  0  0  0
 20 17  1  0  0  0  0
 21 11  1  0  0  0  0
 22 26  2  0  0  0  0
 23 27  1  0  0  0  0
 24  6  1  0  0  0  0
 25 10  1  0  0  0  0
 26 14  1  0  0  0  0
 27 21  2  0  0  0  0
 28 23  1  0  0  0  0
 29 22  1  0  0  0  0
 22 13  1  0  0  0  0
 18  8  1  0  0  0  0
 23 15  2  0  0  0  0
M  CHG  2   1   1   2  -1
M  END
> <#>
112

> <PLATE>
LAT002

> <ROW>
H

> <COL>
5

> <COORD>
H05

> <LATID>
LAT002H05

> <Supplier>
Microsource

> <Suplier_CAT#>
01500413

> <Name>
Miconazole Nitrate

> <Concentration_(mM)>
2.5

> <IC50_(µM)>
2.3

> <Yeast_Active?>
+

> <Pubchem_CID>
68553

> <Description>
Antifungal (Topical)

$$$$
