
  -ISIS-  08130814242D

 27 29  0  0  0  0  0  0  0  0999 V2000
   -2.5333   -1.0167    0.0000 N   0  0  3  0  0  0  0  0  0  0  0  0
   -2.1333   -1.5000    0.0000 C   0  0  0  0  0  0  0  0  0  0  0  0
    1.1000   -0.1667    0.0000 C   0  0  0  0  0  0  0  0  0  0  0  0
   -1.5625   -0.6500    0.0000 C   0  0  3  0  0  0  0  0  0  0  0  0
    1.6500   -0.4667    0.0000 C   0  0  3  0  0  0  0  0  0  0  0  0
   -1.0708   -0.2500    0.0000 C   0  0  0  0  0  0  0  0  0  0  0  0
   -2.1708   -0.4792    0.0000 C   0  0  0  0  0  0  0  0  0  0  0  0
   -1.5625   -1.3000    0.0000 C   0  0  0  0  0  0  0  0  0  0  0  0
   -0.5333   -0.5500    0.0000 N   0  0  0  0  0  0  0  0  0  0  0  0
   -3.1500   -1.0667    0.0000 C   0  0  0  0  0  0  0  0  0  0  0  0
    1.0542    0.4625    0.0000 C   0  0  0  0  0  0  0  0  0  0  0  0
    0.5500   -0.5000    0.0000 C   0  0  0  0  0  0  0  0  0  0  0  0
   -2.2833   -2.1000    0.0000 O   0  0  0  0  0  0  0  0  0  0  0  0
    0.0000   -0.2042    0.0000 C   0  0  0  0  0  0  0  0  0  0  0  0
   -1.1125    0.4333    0.0000 O   0  0  0  0  0  0  0  0  0  0  0  0
    2.1792   -0.7542    0.0000 F   0  0  0  0  0  0  0  0  0  0  0  0
    1.9500    0.0708    0.0000 F   0  0  0  0  0  0  0  0  0  0  0  0
    1.3500   -1.0167    0.0000 F   0  0  0  0  0  0  0  0  0  0  0  0
   -3.5208   -0.5542    0.0000 C   0  0  0  0  0  0  0  0  0  0  0  0
   -3.4000   -1.6500    0.0000 C   0  0  0  0  0  0  0  0  0  0  0  0
    0.5000    0.7500    0.0000 C   0  0  0  0  0  0  0  0  0  0  0  0
   -0.0208    0.4125    0.0000 C   0  0  0  0  0  0  0  0  0  0  0  0
   -4.4125   -1.2000    0.0000 C   0  0  0  0  0  0  0  0  0  0  0  0
    1.5792    0.7958    0.0000 Cl  0  0  0  0  0  0  0  0  0  0  0  0
   -4.1583   -0.6167    0.0000 C   0  0  0  0  0  0  0  0  0  0  0  0
   -4.0333   -1.7042    0.0000 C   0  0  0  0  0  0  0  0  0  0  0  0
   -5.0333   -1.2292    0.0000 F   0  0  0  0  0  0  0  0  0  0  0  0
  2  1  1  0  0  0  0
  3 12  1  0  0  0  0
  4  7  1  0  0  0  0
  5  3  1  0  0  0  0
  6  4  1  0  0  0  0
  7  1  1  0  0  0  0
  8  2  1  0  0  0  0
  9  6  1  0  0  0  0
 10  1  1  0  0  0  0
 11 21  1  0  0  0  0
 12 14  2  0  0  0  0
 13  2  2  0  0  0  0
 14  9  1  0  0  0  0
 15  6  2  0  0  0  0
 16  5  1  0  0  0  0
 17  5  1  0  0  0  0
 18  5  1  0  0  0  0
 19 10  2  0  0  0  0
 20 10  1  0  0  0  0
 21 22  2  0  0  0  0
 22 14  1  0  0  0  0
 23 26  1  0  0  0  0
 24 11  1  0  0  0  0
 25 19  1  0  0  0  0
 26 20  2  0  0  0  0
 27 23  1  0  0  0  0
  4  8  1  0  0  0  0
 23 25  2  0  0  0  0
  3 11  2  0  0  0  0
M  END
> <#>
1036

> <PLATE>
LAT013

> <ROW>
D

> <COL>
11

> <COORD>
D11

> <LATID>
LAT013D11

> <Supplier>
Chembridge

> <Suplier_CAT#>
5677773

> <Name>
Novel

> <Sec_Name>
215_B02

> <Concentration_(mM)>
2.5

> <IC50_(µM)>
16

> <Yeast_Active?>
-

> <Pubchem_CID>
1109947

$$$$
