
  -ISIS-  08130814242D

 19 20  0  0  0  0  0  0  0  0999 V2000
   -3.9958    1.8125    0.0000 C   0  0  0  0  0  0  0  0  0  0  0  0
   -3.3125    2.2083    0.0000 C   0  0  0  0  0  0  0  0  0  0  0  0
    1.0542    1.7333    0.0000 C   0  0  0  0  0  0  0  0  0  0  0  0
   -1.2708    1.8125    0.0000 N   0  0  0  0  0  0  0  0  0  0  0  0
    0.3667    2.1208    0.0000 C   0  0  0  0  0  0  0  0  0  0  0  0
    1.7500    2.1208    0.0000 C   0  0  0  0  0  0  0  0  0  0  0  0
   -3.9958    1.0333    0.0000 O   0  0  0  0  0  0  0  0  0  0  0  0
    1.0542    3.2958    0.0000 C   0  0  0  0  0  0  0  0  0  0  0  0
   -0.3000    1.7458    0.0000 C   0  0  0  0  0  0  0  0  0  0  0  0
   -2.6333    1.8125    0.0000 C   0  0  0  0  0  0  0  0  0  0  0  0
   -4.6708    2.2083    0.0000 C   0  0  0  0  0  0  0  0  0  0  0  0
   -3.3125    2.9958    0.0000 C   0  0  0  0  0  0  0  0  0  0  0  0
   -1.9500    2.2083    0.0000 C   0  0  0  0  0  0  0  0  0  0  0  0
    1.7500    2.9000    0.0000 C   0  0  0  0  0  0  0  0  0  0  0  0
    0.3667    2.9000    0.0000 C   0  0  0  0  0  0  0  0  0  0  0  0
    2.4042    1.7625    0.0000 C   0  0  0  0  0  0  0  0  0  0  0  0
   -4.6583    0.6500    0.0000 C   0  0  0  0  0  0  0  0  0  0  0  0
   -3.9958    3.3958    0.0000 C   0  0  0  0  0  0  0  0  0  0  0  0
   -4.6708    2.9958    0.0000 C   0  0  0  0  0  0  0  0  0  0  0  0
  2  1  1  0  0  0  0
  3  5  1  0  0  0  0
  4 13  1  0  0  0  0
  5  9  1  0  0  0  0
  6  3  2  0  0  0  0
  7  1  1  0  0  0  0
  8 15  1  0  0  0  0
  9  4  1  0  0  0  0
 10  2  1  0  0  0  0
 11  1  2  0  0  0  0
 12  2  2  0  0  0  0
 13 10  1  0  0  0  0
 14  8  2  0  0  0  0
 15  5  2  0  0  0  0
 16  6  1  0  0  0  0
 17  7  1  0  0  0  0
 18 19  2  0  0  0  0
 19 11  1  0  0  0  0
 18 12  1  0  0  0  0
 14  6  1  0  0  0  0
M  END
> <#>
620

> <PLATE>
LAT008

> <ROW>
D

> <COL>
9

> <COORD>
D09

> <LATID>
LAT008D09

> <Supplier>
Chembridge

> <Suplier_CAT#>
5535742

> <Name>
Novel

> <Sec_Name>
156_A05

> <Concentration_(mM)>
2.5

> <IC50_(µM)>
70

> <Yeast_Active?>
-

> <Pubchem_CID>
2163811

$$$$
