
  -ISIS-  08130814242D

 36 37  0  0  0  0  0  0  0  0999 V2000
    8.9459   -2.4967    0.0000 N   0  3  0  0  0  0  0  0  0  0  0  0
    9.6611   -2.0825    0.0000 C   0  0  0  0  0  0  0  0  0  0  0  0
    8.2329   -2.0858    0.0000 C   0  0  0  0  0  0  0  0  0  0  0  0
    8.2310   -1.2608    0.0000 C   0  0  0  0  0  0  0  0  0  0  0  0
    8.9421   -0.8467    0.0000 C   0  0  0  0  0  0  0  0  0  0  0  0
    9.6592   -1.2575    0.0000 C   0  0  0  0  0  0  0  0  0  0  0  0
   10.3744   -0.8434    0.0000 C   0  0  0  0  0  0  0  0  0  0  0  0
   11.0874   -1.2542    0.0000 C   0  0  0  0  0  0  0  0  0  0  0  0
   11.0893   -2.0792    0.0000 C   0  0  0  0  0  0  0  0  0  0  0  0
   10.3782   -2.4934    0.0000 C   0  0  0  0  0  0  0  0  0  0  0  0
    7.5236   -2.5041    0.0000 C   0  0  0  0  0  0  0  0  0  0  0  0
    8.9470   -0.0217    0.0000 N   0  0  0  0  0  0  0  0  0  0  0  0
    2.5486   -4.5792    0.0000 N   0  3  0  0  0  0  0  0  0  0  0  0
    1.8324   -4.9917    0.0000 C   0  0  0  0  0  0  0  0  0  0  0  0
    3.2606   -4.9917    0.0000 C   0  0  0  0  0  0  0  0  0  0  0  0
    3.2606   -5.8167    0.0000 C   0  0  0  0  0  0  0  0  0  0  0  0
    2.5486   -6.2292    0.0000 C   0  0  0  0  0  0  0  0  0  0  0  0
    1.8324   -5.8167    0.0000 C   0  0  0  0  0  0  0  0  0  0  0  0
    1.1162   -6.2292    0.0000 C   0  0  0  0  0  0  0  0  0  0  0  0
    0.4042   -5.8167    0.0000 C   0  0  0  0  0  0  0  0  0  0  0  0
    0.4042   -4.9917    0.0000 C   0  0  0  0  0  0  0  0  0  0  0  0
    1.1162   -4.5792    0.0000 C   0  0  0  0  0  0  0  0  0  0  0  0
    3.9708   -4.5750    0.0000 C   0  0  0  0  0  0  0  0  0  0  0  0
    2.5417   -7.0542    0.0000 N   0  0  0  0  0  0  0  0  0  0  0  0
    2.5417   -3.7542    0.0000 C   0  0  0  0  0  0  0  0  0  0  0  0
    3.2542   -3.3417    0.0000 C   0  0  0  0  0  0  0  0  0  0  0  0
    3.9667   -3.7500    0.0000 C   0  0  0  0  0  0  0  0  0  0  0  0
    4.6792   -3.3375    0.0000 C   0  0  0  0  0  0  0  0  0  0  0  0
    5.3917   -3.7458    0.0000 C   0  0  0  0  0  0  0  0  0  0  0  0
    6.1042   -3.3333    0.0000 C   0  0  0  0  0  0  0  0  0  0  0  0
    6.8167   -3.7417    0.0000 C   0  0  0  0  0  0  0  0  0  0  0  0
    7.5292   -3.3292    0.0000 C   0  0  0  0  0  0  0  0  0  0  0  0
    8.2417   -3.7375    0.0000 C   0  0  0  0  0  0  0  0  0  0  0  0
    8.9542   -3.3208    0.0000 C   0  0  0  0  0  0  0  0  0  0  0  0
    1.5167   -3.4708    0.0000 Cl  0  5  0  0  0  0  0  0  0  0  0  0
   10.1000   -3.3792    0.0000 Cl  0  5  0  0  0  0  0  0  0  0  0  0
  6  7  1  0  0  0  0
  7  8  2  0  0  0  0
 22 14  1  0  0  0  0
 14 18  2  0  0  0  0
 14 13  1  0  0  0  0
 13 15  2  0  0  0  0
 15 16  1  0  0  0  0
 16 17  2  0  0  0  0
 17 18  1  0  0  0  0
 18 19  1  0  0  0  0
 19 20  2  0  0  0  0
 20 21  1  0  0  0  0
 21 22  2  0  0  0  0
  8  9  1  0  0  0  0
 15 23  1  0  0  0  0
  9 10  2  0  0  0  0
 17 24  1  0  0  0  0
 13 25  1  0  0  0  0
  3 11  1  0  0  0  0
 25 26  1  0  0  0  0
 26 27  1  0  0  0  0
  5 12  1  0  0  0  0
 27 28  1  0  0  0  0
 28 29  1  0  0  0  0
 10  2  1  0  0  0  0
 29 30  1  0  0  0  0
  2  6  2  0  0  0  0
 30 31  1  0  0  0  0
  2  1  1  0  0  0  0
 31 32  1  0  0  0  0
  1  3  2  0  0  0  0
 32 33  1  0  0  0  0
  3  4  1  0  0  0  0
 33 34  1  0  0  0  0
 34  1  1  0  0  0  0
  4  5  2  0  0  0  0
  5  6  1  0  0  0  0
M  CHG  4   1   1  13   1  35  -1  36  -1
M  END
> <#>
222

> <PLATE>
LAT003

> <ROW>
F

> <COL>
9

> <COORD>
F09

> <LATID>
LAT003F09

> <Supplier>
Sigma

> <Suplier_CAT#>
D 3768

> <Name>
Dequalinium Dichloride

> <Concentration_(mM)>
2.5

> <IC50_(µM)>
69

> <Yeast_Active?>
+

> <Pubchem_CID>
2497

> <Description>
Selective blocker of apamin-sensitive K+ channels

$$$$
