
  -ISIS-  08130814242D

 20 21  0  0  0  0  0  0  0  0999 V2000
   -1.6708    1.0333    0.0000 N   0  0  0  0  0  0  0  0  0  0  0  0
   -2.6125    1.0333    0.0000 C   0  0  0  0  0  0  0  0  0  0  0  0
   -0.2500    0.2125    0.0000 C   0  0  0  0  0  0  0  0  0  0  0  0
   -1.1958    0.2125    0.0000 N   0  0  0  0  0  0  0  0  0  0  0  0
   -3.0958    0.2125    0.0000 C   0  0  0  0  0  0  0  0  0  0  0  0
   -2.6125   -0.6042    0.0000 N   0  0  0  0  0  0  0  0  0  0  0  0
    0.2292    1.0333    0.0000 O   0  0  0  0  0  0  0  0  0  0  0  0
    0.2292   -0.6042    0.0000 C   0  0  0  0  0  0  0  0  0  0  0  0
    1.1667   -0.6042    0.0000 C   0  0  0  0  0  0  0  0  0  0  0  0
    3.0667   -0.6042    0.0000 C   0  0  0  0  0  0  0  0  0  0  0  0
    4.0042   -0.6167    0.0000 Cl  0  0  0  0  0  0  0  0  0  0  0  0
    2.5875    0.2125    0.0000 C   0  0  0  0  0  0  0  0  0  0  0  0
    2.5875   -1.4292    0.0000 C   0  0  0  0  0  0  0  0  0  0  0  0
    1.6500    0.2125    0.0000 C   0  0  0  0  0  0  0  0  0  0  0  0
    1.6500   -1.4292    0.0000 C   0  0  0  0  0  0  0  0  0  0  0  0
   -3.0958    1.8500    0.0000 C   0  0  0  0  0  0  0  0  0  0  0  0
   -3.0958   -1.4292    0.0000 C   0  0  0  0  0  0  0  0  0  0  0  0
   -4.0333    0.2125    0.0000 C   0  0  0  0  0  0  0  0  0  0  0  0
   -4.0333   -1.4292    0.0000 C   0  0  0  0  0  0  0  0  0  0  0  0
   -4.5208   -0.6042    0.0000 C   0  0  0  0  0  0  0  0  0  0  0  0
  2  1  2  0  0  0  0
  3  4  1  0  0  0  0
  4  1  1  0  0  0  0
  5  2  1  0  0  0  0
  6  5  1  0  0  0  0
  7  3  2  0  0  0  0
  8  3  1  0  0  0  0
  9  8  1  0  0  0  0
 10 13  1  0  0  0  0
 11 10  1  0  0  0  0
 12 14  1  0  0  0  0
 13 15  2  0  0  0  0
 14  9  2  0  0  0  0
 15  9  1  0  0  0  0
 16  2  1  0  0  0  0
 17  6  2  0  0  0  0
 18  5  2  0  0  0  0
 19 20  2  0  0  0  0
 20 18  1  0  0  0  0
 17 19  1  0  0  0  0
 12 10  2  0  0  0  0
M  END
> <#>
1809

> <PLATE>
LAT023

> <ROW>
A

> <COL>
8

> <COORD>
A08

> <LATID>
LAT023A08

> <Supplier>
Chembridge

> <Suplier_CAT#>
5633444

> <Name>
Novel

> <Sec_Name>
193_F08

> <Concentration_(mM)>
2.5

> <IC50_(µM)>
33

> <Yeast_Active?>
-

> <Pubchem_CID>
872827

$$$$
