
  -ISIS-  08130814242D

 39 38  0  0  0  0  0  0  0  0999 V2000
    2.0417   -2.5542    0.0000 C   0  0  0  0  0  0  0  0  0  0  0  0
    9.9167   -7.1000    0.0000 C   0  0  0  0  0  0  0  0  0  0  0  0
    9.5417   -6.4417    0.0000 C   0  0  0  0  0  0  0  0  0  0  0  0
    2.7917   -2.5542    0.0000 C   0  0  0  0  0  0  0  0  0  0  0  0
    1.6667   -1.9125    0.0000 N   0  0  0  0  0  0  0  0  0  0  0  0
   10.6750   -7.1042    0.0000 N   0  0  0  0  0  0  0  0  0  0  0  0
    3.1667   -1.9042    0.0000 C   0  0  0  0  0  0  0  0  0  0  0  0
    8.7917   -6.4417    0.0000 C   0  0  0  0  0  0  0  0  0  0  0  0
    3.1667   -3.2042    0.0000 C   0  0  0  0  0  0  0  0  0  0  0  0
    9.9167   -5.7875    0.0000 C   0  0  0  0  0  0  0  0  0  0  0  0
    9.5375   -7.7500    0.0000 N   0  0  0  0  0  0  0  0  0  0  0  0
    1.6667   -3.2042    0.0000 N   0  0  0  0  0  0  0  0  0  0  0  0
    4.2917   -2.5542    0.0000 C   0  0  0  0  0  0  0  0  0  0  0  0
    8.7917   -5.1417    0.0000 C   0  0  0  0  0  0  0  0  0  0  0  0
    3.9167   -3.2042    0.0000 C   0  0  0  0  0  0  0  0  0  0  0  0
    8.4167   -5.7917    0.0000 C   0  0  0  0  0  0  0  0  0  0  0  0
    9.5417   -5.1417    0.0000 C   0  0  0  0  0  0  0  0  0  0  0  0
    3.9167   -1.9042    0.0000 C   0  0  0  0  0  0  0  0  0  0  0  0
    8.4167   -4.4917    0.0000 O   0  0  0  0  0  0  0  0  0  0  0  0
    5.0417   -2.5542    0.0000 O   0  0  0  0  0  0  0  0  0  0  0  0
    5.4167   -3.2042    0.0000 C   0  0  0  0  0  0  0  0  0  0  0  0
    7.6667   -4.4917    0.0000 C   0  0  0  0  0  0  0  0  0  0  0  0
    7.2917   -3.8500    0.0000 C   0  0  0  0  0  0  0  0  0  0  0  0
    6.1667   -3.2042    0.0000 C   0  0  0  0  0  0  0  0  0  0  0  0
    6.5417   -3.8500    0.0000 C   0  0  0  0  0  0  0  0  0  0  0  0
    7.1167   -7.6417    0.0000 S   0  0  3  0  0  0  0  0  0  0  0  0
    6.4042   -8.0542    0.0000 C   0  0  0  0  0  0  0  0  0  0  0  0
    6.6750   -6.9917    0.0000 O   0  0  0  0  0  0  0  0  0  0  0  0
    7.4792   -7.0875    0.0000 O   0  0  0  0  0  0  0  0  0  0  0  0
    7.8292   -8.0542    0.0000 O   0  0  0  0  0  0  0  0  0  0  0  0
    4.9792   -8.0542    0.0000 O   0  0  0  0  0  0  0  0  0  0  0  0
    5.6917   -7.6417    0.0000 C   0  0  0  0  0  0  0  0  0  0  0  0
   -0.4833   -2.6375    0.0000 S   0  0  3  0  0  0  0  0  0  0  0  0
   -1.1958   -3.0500    0.0000 C   0  0  0  0  0  0  0  0  0  0  0  0
   -0.9250   -1.9875    0.0000 O   0  0  0  0  0  0  0  0  0  0  0  0
   -0.1208   -2.0792    0.0000 O   0  0  0  0  0  0  0  0  0  0  0  0
    0.2292   -3.0500    0.0000 O   0  0  0  0  0  0  0  0  0  0  0  0
   -2.6208   -3.0500    0.0000 O   0  0  0  0  0  0  0  0  0  0  0  0
   -1.9083   -2.6375    0.0000 C   0  0  0  0  0  0  0  0  0  0  0  0
 13 15  1  0  0  0  0
 14 19  1  0  0  0  0
 15  9  2  0  0  0  0
 16 14  1  0  0  0  0
 17 14  2  0  0  0  0
 18  7  1  0  0  0  0
 19 22  1  0  0  0  0
 20 13  1  0  0  0  0
 21 20  1  0  0  0  0
 22 23  1  0  0  0  0
 23 25  1  0  0  0  0
 24 21  1  0  0  0  0
 25 24  1  0  0  0  0
 13 18  2  0  0  0  0
  3  8  1  0  0  0  0
  2  3  1  0  0  0  0
  3 10  2  0  0  0  0
  4  1  1  0  0  0  0
  5  1  2  0  0  0  0
 31 32  1  0  0  0  0
 32 27  1  0  0  0  0
 27 26  1  0  0  0  0
 28 26  2  0  0  0  0
 29 26  2  0  0  0  0
 30 26  1  0  0  0  0
  6  2  2  0  0  0  0
  7  4  2  0  0  0  0
  8 16  2  0  0  0  0
  9  4  1  0  0  0  0
 10 17  1  0  0  0  0
 11  2  1  0  0  0  0
 12  1  1  0  0  0  0
 35 33  2  0  0  0  0
 36 33  2  0  0  0  0
 37 33  1  0  0  0  0
 38 39  1  0  0  0  0
 39 34  1  0  0  0  0
 34 33  1  0  0  0  0
M  END
> <#>
168

> <PLATE>
LAT003

> <ROW>
H

> <COL>
2

> <COORD>
H02

> <LATID>
LAT003H02

> <Supplier>
Microsource

> <Suplier_CAT#>
01500641

> <Name>
Pentamidine Isethionate

> <Concentration_(mM)>
2.5

> <IC50_(µM)>
6.9

> <Yeast_Active?>
-

> <Pubchem_CID>
8813

> <Description>
Antiprotozoal, Inhibits Nucleic Acid & Protein Synthesis

$$$$
