
  -ISIS-  08130814242D

 26 28  0  0  0  0  0  0  0  0999 V2000
    0.7542    0.0833    0.0000 C   0  0  0  0  0  0  0  0  0  0  0  0
    1.5000   -0.3542    0.0000 C   0  0  3  0  0  0  0  0  0  0  0  0
    0.0167    0.5000    0.0000 C   0  0  0  0  0  0  0  0  0  0  0  0
   -2.2000    0.0208    0.0000 C   0  0  0  0  0  0  0  0  0  0  0  0
   -1.4625    0.4833    0.0000 C   0  0  0  0  0  0  0  0  0  0  0  0
    1.9375    0.3833    0.0000 C   0  0  0  0  0  0  0  0  0  0  0  0
    1.0792   -1.1000    0.0000 C   0  0  0  0  0  0  0  0  0  0  0  0
   -0.7208    0.9208    0.0000 C   0  0  3  0  0  0  0  0  0  0  0  0
   -2.9458   -0.4375    0.0000 C   0  0  0  0  0  0  0  0  0  0  0  0
    2.2375   -0.8000    0.0000 O   0  0  0  0  0  0  0  0  0  0  0  0
   -0.7208    1.7833    0.0000 O   0  0  0  0  0  0  0  0  0  0  0  0
    1.5000   -1.8375    0.0000 C   0  0  0  0  0  0  0  0  0  0  0  0
    1.5000    1.1208    0.0000 C   0  0  0  0  0  0  0  0  0  0  0  0
    0.2167   -1.1000    0.0000 C   0  0  0  0  0  0  0  0  0  0  0  0
    2.7792    0.3833    0.0000 C   0  0  0  0  0  0  0  0  0  0  0  0
   -3.6625    0.0000    0.0000 C   0  0  0  0  0  0  0  0  0  0  0  0
   -2.9458   -1.2792    0.0000 C   0  0  0  0  0  0  0  0  0  0  0  0
    3.2000    1.1208    0.0000 C   0  0  0  0  0  0  0  0  0  0  0  0
    1.0792   -2.5792    0.0000 C   0  0  0  0  0  0  0  0  0  0  0  0
   -0.2000   -1.8375    0.0000 C   0  0  0  0  0  0  0  0  0  0  0  0
    1.9375    1.8625    0.0000 C   0  0  0  0  0  0  0  0  0  0  0  0
   -3.6625   -1.7000    0.0000 C   0  0  0  0  0  0  0  0  0  0  0  0
   -4.4083   -0.4167    0.0000 C   0  0  0  0  0  0  0  0  0  0  0  0
    2.7792    1.8625    0.0000 C   0  0  0  0  0  0  0  0  0  0  0  0
   -4.4083   -1.2792    0.0000 C   0  0  0  0  0  0  0  0  0  0  0  0
    0.2167   -2.5792    0.0000 C   0  0  0  0  0  0  0  0  0  0  0  0
  2  1  1  0  0  0  0
  3  1  3  0  0  0  0
  4  5  3  0  0  0  0
  5  8  1  0  0  0  0
  6  2  1  0  0  0  0
  7  2  1  0  0  0  0
  8  3  1  0  0  0  0
  9  4  1  0  0  0  0
 10  2  1  0  0  0  0
 11  8  1  0  0  0  0
 12  7  2  0  0  0  0
 13  6  2  0  0  0  0
 14  7  1  0  0  0  0
 15  6  1  0  0  0  0
 16  9  1  0  0  0  0
 17  9  2  0  0  0  0
 18 15  2  0  0  0  0
 19 12  1  0  0  0  0
 20 14  2  0  0  0  0
 21 13  1  0  0  0  0
 22 17  1  0  0  0  0
 23 16  2  0  0  0  0
 24 18  1  0  0  0  0
 25 22  2  0  0  0  0
 26 20  1  0  0  0  0
 19 26  2  0  0  0  0
 21 24  2  0  0  0  0
 23 25  1  0  0  0  0
M  END
> <#>
1012

> <PLATE>
LAT013

> <ROW>
D

> <COL>
8

> <COORD>
D08

> <LATID>
LAT013D08

> <Supplier>
Chembridge

> <Suplier_CAT#>
5613009

> <Name>
Odynol

> <Concentration_(mM)>
2.5

> <IC50_(µM)>
0.5

> <Yeast_Active?>
-

> <Pubchem_CID>
6456466

$$$$
