
  -ISIS-  08130814242D

 28 32  0  0  0  0  0  0  0  0999 V2000
   -1.6889   -5.5000    0.0000 N   0  0  0  0  0  0  0  0  0  0  0  0
   -1.6901   -6.3273    0.0000 C   0  0  0  0  0  0  0  0  0  0  0  0
   -0.9753   -6.7402    0.0000 N   0  0  0  0  0  0  0  0  0  0  0  0
   -0.9771   -5.0872    0.0000 C   0  0  0  0  0  0  0  0  0  0  0  0
   -0.2617   -5.4963    0.0000 C   0  0  0  0  0  0  0  0  0  0  0  0
   -0.2568   -6.3274    0.0000 C   0  0  0  0  0  0  0  0  0  0  0  0
    0.5351   -6.5796    0.0000 N   0  0  3  0  0  0  0  0  0  0  0  0
    1.0196   -5.9043    0.0000 C   0  0  0  0  0  0  0  0  0  0  0  0
    0.5272   -5.2350    0.0000 C   0  0  0  0  0  0  0  0  0  0  0  0
    0.7775   -4.4489    0.0000 C   0  0  0  0  0  0  0  0  0  0  0  0
    0.7946   -7.3627    0.0000 C   0  0  3  0  0  0  0  0  0  0  0  0
    0.3156   -8.0304    0.0000 C   0  0  0  0  0  0  0  0  0  0  0  0
    0.8044   -8.6950    0.0000 C   0  0  0  0  0  0  0  0  0  0  0  0
    1.5876   -8.4355    0.0000 C   0  0  0  0  0  0  0  0  0  0  0  0
    1.5826   -7.6106    0.0000 C   0  0  0  0  0  0  0  0  0  0  0  0
    1.5827   -4.2781    0.0000 C   0  0  0  0  0  0  0  0  0  0  0  0
    1.8331   -3.4929    0.0000 C   0  0  0  0  0  0  0  0  0  0  0  0
    1.2772   -2.8821    0.0000 C   0  0  0  0  0  0  0  0  0  0  0  0
    0.4676   -3.0619    0.0000 C   0  0  0  0  0  0  0  0  0  0  0  0
    0.2210   -3.8469    0.0000 C   0  0  0  0  0  0  0  0  0  0  0  0
    1.5265   -2.0956    0.0000 O   0  0  0  0  0  0  0  0  0  0  0  0
   -0.9795   -4.2622    0.0000 N   0  0  0  0  0  0  0  0  0  0  0  0
    2.3322   -1.9183    0.0000 C   0  0  0  0  0  0  0  0  0  0  0  0
    2.8870   -2.5281    0.0000 C   0  0  0  0  0  0  0  0  0  0  0  0
    3.6921   -2.3513    0.0000 C   0  0  0  0  0  0  0  0  0  0  0  0
    3.9421   -1.5641    0.0000 C   0  0  0  0  0  0  0  0  0  0  0  0
    3.3808   -0.9536    0.0000 C   0  0  0  0  0  0  0  0  0  0  0  0
    2.5778   -1.1336    0.0000 C   0  0  0  0  0  0  0  0  0  0  0  0
  1  2  2  0  0  0  0
 12 13  1  0  0  0  0
 13 14  1  0  0  0  0
 14 15  1  0  0  0  0
 15 11  1  0  0  0  0
  5  4  2  0  0  0  0
 10 16  2  0  0  0  0
  6  7  1  0  0  0  0
 16 17  1  0  0  0  0
  7  8  1  0  0  0  0
 17 18  2  0  0  0  0
  8  9  2  0  0  0  0
 18 19  1  0  0  0  0
  9  5  1  0  0  0  0
 19 20  2  0  0  0  0
 20 10  1  0  0  0  0
  4  1  1  0  0  0  0
 18 21  1  0  0  0  0
  9 10  1  0  0  0  0
  4 22  1  0  0  0  0
  5  6  1  0  0  0  0
 21 23  1  0  0  0  0
  7 11  1  0  0  0  0
 23 24  2  0  0  0  0
 11 12  1  0  0  0  0
 24 25  1  0  0  0  0
 25 26  2  0  0  0  0
  2  3  1  0  0  0  0
 26 27  1  0  0  0  0
  3  6  2  0  0  0  0
 27 28  2  0  0  0  0
 28 23  1  0  0  0  0
M  END
> <#>
218

> <PLATE>
LAT003

> <ROW>
B

> <COL>
9

> <COORD>
B09

> <LATID>
LAT003B09

> <Supplier>
Sigma

> <Suplier_CAT#>
C 8863

> <Name>
7-Cyclopentyl-5-(4-Phenoxy)Phenyl-7H-Pyrrolo[2,3-D]Pyrimidin-4-Ylamine

> <Concentration_(mM)>
2.5

> <IC50_(µM)>
9.2

> <Yeast_Active?>
-

> <Pubchem_CID>
6603792

> <Description>
Potent and selective Ick (src family tyrosine kinase) inhibitor.

$$$$
