
  -ISIS-  08130814242D

 18 19  0  0  0  0  0  0  0  0999 V2000
    5.6000    2.4333    0.0000 S   0  0  3  0  0  0  0  0  0  0  0  0
    7.0000    2.4333    0.0000 N   0  0  0  0  0  0  0  0  0  0  0  0
    4.2000    2.4333    0.0000 C   0  0  0  0  0  0  0  0  0  0  0  0
    5.6000    3.8333    0.0000 O   0  0  0  0  0  0  0  0  0  0  0  0
    5.6000    1.0333    0.0000 O   0  0  0  0  0  0  0  0  0  0  0  0
    9.8000    2.4333    0.0000 N   0  0  0  0  0  0  0  0  0  0  0  0
    7.7000    1.2208    0.0000 C   0  0  0  0  0  0  0  0  0  0  0  0
    3.5000    1.2208    0.0000 C   0  0  0  0  0  0  0  0  0  0  0  0
    3.5000    3.6458    0.0000 C   0  0  0  0  0  0  0  0  0  0  0  0
    9.1000    1.2208    0.0000 C   0  0  0  0  0  0  0  0  0  0  0  0
    1.4000    2.4333    0.0000 C   0  0  0  0  0  0  0  0  0  0  0  0
    2.1000    1.2208    0.0000 C   0  0  0  0  0  0  0  0  0  0  0  0
    2.1000    3.6458    0.0000 C   0  0  0  0  0  0  0  0  0  0  0  0
    0.0000    2.4333    0.0000 I   0  0  0  0  0  0  0  0  0  0  0  0
   11.2000    2.4333    0.0000 C   0  0  0  0  0  0  0  0  0  0  0  0
    9.8000    0.0000    0.0000 C   0  0  0  0  0  0  0  0  0  0  0  0
   11.9000    1.2208    0.0000 C   0  0  0  0  0  0  0  0  0  0  0  0
   11.2000    0.0000    0.0000 C   0  0  0  0  0  0  0  0  0  0  0  0
  2  1  1  0  0  0  0
  3  1  1  0  0  0  0
  4  1  2  0  0  0  0
  5  1  2  0  0  0  0
  6 10  2  0  0  0  0
  7  2  1  0  0  0  0
  8  3  2  0  0  0  0
  9  3  1  0  0  0  0
 10  7  1  0  0  0  0
 11 13  1  0  0  0  0
 12  8  1  0  0  0  0
 13  9  2  0  0  0  0
 14 11  1  0  0  0  0
 15  6  1  0  0  0  0
 16 10  1  0  0  0  0
 17 18  1  0  0  0  0
 18 16  2  0  0  0  0
 12 11  2  0  0  0  0
 15 17  2  0  0  0  0
M  END
> <#>
1947

> <PLATE>
LAT025

> <ROW>
C

> <COL>
5

> <COORD>
C05

> <LATID>
LAT025C05

> <Supplier>
Chembridge

> <Suplier_CAT#>
6988147

> <Name>
Novel

> <Concentration_(mM)>
2.5

> <IC50_(µM)>
86

> <Yeast_Active?>
-

> <Pubchem_CID>
1327407

$$$$
