
  -ISIS-  08130814242D

 23 24  0  0  0  0  0  0  0  0999 V2000
   -0.5333    1.0958    0.0000 S   0  0  3  0  0  0  0  0  0  0  0  0
   -4.2708    1.0958    0.0000 N   0  3  0  0  0  0  0  0  0  0  0  0
   -0.5333    0.1500    0.0000 O   0  0  0  0  0  0  0  0  0  0  0  0
   -1.4625    1.0958    0.0000 C   0  0  0  0  0  0  0  0  0  0  0  0
   -3.3333    1.0958    0.0000 C   0  0  0  0  0  0  0  0  0  0  0  0
    0.4542    1.1208    0.0000 O   0  0  0  0  0  0  0  0  0  0  0  0
   -0.5458    2.0000    0.0000 O   0  0  0  0  0  0  0  0  0  0  0  0
   -4.8000    1.8625    0.0000 O   0  5  0  0  0  0  0  0  0  0  0  0
   -4.7833    0.3208    0.0000 O   0  0  0  0  0  0  0  0  0  0  0  0
    2.7042   -1.7292    0.0000 C   0  0  0  0  0  0  0  0  0  0  0  0
    1.9000   -1.2542    0.0000 C   0  0  0  0  0  0  0  0  0  0  0  0
   -1.9333    1.9000    0.0000 C   0  0  0  0  0  0  0  0  0  0  0  0
   -1.9208    0.2833    0.0000 C   0  0  0  0  0  0  0  0  0  0  0  0
   -2.8625    0.2833    0.0000 C   0  0  0  0  0  0  0  0  0  0  0  0
   -2.8625    1.9000    0.0000 C   0  0  0  0  0  0  0  0  0  0  0  0
    2.7000   -2.6542    0.0000 O   0  0  0  0  0  0  0  0  0  0  0  0
    1.0875   -1.7292    0.0000 C   0  0  0  0  0  0  0  0  0  0  0  0
    1.9000   -0.3167    0.0000 C   0  0  0  0  0  0  0  0  0  0  0  0
    0.2792   -0.3167    0.0000 C   0  0  0  0  0  0  0  0  0  0  0  0
    1.0875    0.1500    0.0000 C   0  0  0  0  0  0  0  0  0  0  0  0
    0.2792   -1.2542    0.0000 C   0  0  0  0  0  0  0  0  0  0  0  0
    3.5042   -1.2542    0.0000 C   0  0  0  0  0  0  0  0  0  0  0  0
    3.4875   -0.3042    0.0000 C   0  0  0  0  0  0  0  0  0  0  0  0
  2  5  1  0  0  0  0
  3  1  1  0  0  0  0
  4  1  1  0  0  0  0
  5 14  1  0  0  0  0
  6  1  2  0  0  0  0
  7  1  2  0  0  0  0
  8  2  1  0  0  0  0
  9  2  2  0  0  0  0
 10 11  1  0  0  0  0
 11 17  1  0  0  0  0
 12  4  2  0  0  0  0
 13  4  1  0  0  0  0
 14 13  2  0  0  0  0
 15 12  1  0  0  0  0
 16 10  2  0  0  0  0
 17 21  2  0  0  0  0
 18 20  1  0  0  0  0
 19  3  1  0  0  0  0
 20 19  2  0  0  0  0
 21 19  1  0  0  0  0
 22 10  1  0  0  0  0
 23 22  1  0  0  0  0
 15  5  2  0  0  0  0
 11 18  2  0  0  0  0
M  CHG  2   2   1   8  -1
M  END
> <#>
1180

> <PLATE>
LAT015

> <ROW>
D

> <COL>
9

> <COORD>
D09

> <LATID>
LAT015D09

> <Supplier>
Chembridge

> <Suplier_CAT#>
5162374

> <Name>
Novel

> <Concentration_(mM)>
2.5

> <IC50_(µM)>
>100

> <Yeast_Active?>
+

> <Pubchem_CID>
1621460

$$$$
