
  -ISIS-  08130814242D

 21 23  0  0  0  0  0  0  0  0999 V2000
    2.4875    0.1708    0.0000 C   0  0  0  0  0  0  0  0  0  0  0  0
    2.0667   -0.4292    0.0000 C   0  0  0  0  0  0  0  0  0  0  0  0
    2.0667    0.8125    0.0000 C   0  0  0  0  0  0  0  0  0  0  0  0
    3.2667    0.1708    0.0000 N   0  0  0  0  0  0  0  0  0  0  0  0
    1.3292    0.5708    0.0000 C   0  0  0  0  0  0  0  0  0  0  0  0
    1.3292   -0.2042    0.0000 C   0  0  0  0  0  0  0  0  0  0  0  0
    3.6500   -0.4875    0.0000 N   0  0  0  0  0  0  0  0  0  0  0  0
    4.4292   -0.4875    0.0000 C   0  0  0  0  0  0  0  0  0  0  0  0
    2.3292    1.5333    0.0000 O   0  0  0  0  0  0  0  0  0  0  0  0
    2.3375   -1.1292    0.0000 O   0  0  0  0  0  0  0  0  0  0  0  0
    4.8042   -1.1500    0.0000 O   0  0  0  0  0  0  0  0  0  0  0  0
    4.8167    0.1625    0.0000 C   0  0  0  0  0  0  0  0  0  0  0  0
    0.6667    0.9500    0.0000 C   0  0  0  0  0  0  0  0  0  0  0  0
    0.6667   -0.5875    0.0000 C   0  0  0  0  0  0  0  0  0  0  0  0
    4.4542    0.8458    0.0000 C   0  0  0  0  0  0  0  0  0  0  0  0
    5.5792    0.1458    0.0000 C   0  0  0  0  0  0  0  0  0  0  0  0
    0.0042    0.5708    0.0000 C   0  0  0  0  0  0  0  0  0  0  0  0
    0.0042   -0.1875    0.0000 C   0  0  0  0  0  0  0  0  0  0  0  0
    6.0000    0.7958    0.0000 C   0  0  0  0  0  0  0  0  0  0  0  0
    4.8500    1.4958    0.0000 C   0  0  0  0  0  0  0  0  0  0  0  0
    5.6292    1.4833    0.0000 C   0  0  0  0  0  0  0  0  0  0  0  0
  2  1  1  0  0  0  0
  3  1  1  0  0  0  0
  4  1  2  0  0  0  0
  5  3  1  0  0  0  0
  6  2  1  0  0  0  0
  7  4  1  0  0  0  0
  8  7  1  0  0  0  0
  9  3  2  0  0  0  0
 10  2  2  0  0  0  0
 11  8  2  0  0  0  0
 12  8  1  0  0  0  0
 13  5  1  0  0  0  0
 14  6  1  0  0  0  0
 15 12  2  0  0  0  0
 16 12  1  0  0  0  0
 17 13  2  0  0  0  0
 18 14  2  0  0  0  0
 19 16  2  0  0  0  0
 20 15  1  0  0  0  0
 21 19  1  0  0  0  0
  5  6  2  0  0  0  0
 17 18  1  0  0  0  0
 20 21  2  0  0  0  0
M  END
> <#>
1920

> <PLATE>
LAT024

> <ROW>
H

> <COL>
11

> <COORD>
H11

> <LATID>
LAT024H11

> <Supplier>
Chembridge

> <Suplier_CAT#>
5550454

> <Name>
Novel

> <Sec_Name>
164_E05

> <Concentration_(mM)>
2.5

> <IC50_(µM)>
25

> <Yeast_Active?>
-

> <Pubchem_CID>
871656

$$$$
