
  -ISIS-  08130814242D

 21 23  0  0  0  0  0  0  0  0999 V2000
   -1.9208    0.5125    0.0000 N   0  0  3  0  0  0  0  0  0  0  0  0
   -1.6000    0.8833    0.0000 C   0  0  0  0  0  0  0  0  0  0  0  0
   -1.8625    1.3208    0.0000 N   0  0  0  0  0  0  0  0  0  0  0  0
   -2.3458    1.2333    0.0000 N   0  0  0  0  0  0  0  0  0  0  0  0
   -2.3708    0.7000    0.0000 N   0  0  0  0  0  0  0  0  0  0  0  0
   -0.4708    0.2708    0.0000 C   0  0  0  0  0  0  0  0  0  0  0  0
   -1.1208    0.8000    0.0000 S   0  0  0  0  0  0  0  0  0  0  0  0
   -0.9625    0.3500    0.0000 C   0  0  0  0  0  0  0  0  0  0  0  0
   -1.8333    0.0333    0.0000 C   0  0  0  0  0  0  0  0  0  0  0  0
   -0.2958   -0.1875    0.0000 C   0  0  0  0  0  0  0  0  0  0  0  0
   -0.1625    0.6500    0.0000 C   0  0  0  0  0  0  0  0  0  0  0  0
   -0.5958   -0.5667    0.0000 F   0  0  0  0  0  0  0  0  0  0  0  0
   -0.3333    1.1125    0.0000 F   0  0  0  0  0  0  0  0  0  0  0  0
    0.5042    0.1208    0.0000 C   0  0  0  0  0  0  0  0  0  0  0  0
    0.3167    0.5708    0.0000 C   0  0  0  0  0  0  0  0  0  0  0  0
    0.1875   -0.2667    0.0000 C   0  0  0  0  0  0  0  0  0  0  0  0
   -1.3708   -0.1042    0.0000 C   0  0  0  0  0  0  0  0  0  0  0  0
   -2.1958   -0.2875    0.0000 C   0  0  0  0  0  0  0  0  0  0  0  0
   -2.1125   -0.7875    0.0000 C   0  0  0  0  0  0  0  0  0  0  0  0
   -1.2958   -0.6042    0.0000 C   0  0  0  0  0  0  0  0  0  0  0  0
   -1.6708   -0.9167    0.0000 C   0  0  0  0  0  0  0  0  0  0  0  0
  2  1  1  0  0  0  0
  3  2  2  0  0  0  0
  4  5  2  0  0  0  0
  5  1  1  0  0  0  0
  6  8  1  0  0  0  0
  7  2  1  0  0  0  0
  8  7  1  0  0  0  0
  9  1  1  0  0  0  0
 10  6  2  0  0  0  0
 11  6  1  0  0  0  0
 12 10  1  0  0  0  0
 13 11  1  0  0  0  0
 14 15  1  0  0  0  0
 15 11  2  0  0  0  0
 16 10  1  0  0  0  0
 17  9  2  0  0  0  0
 18  9  1  0  0  0  0
 19 18  2  0  0  0  0
 20 17  1  0  0  0  0
 21 19  1  0  0  0  0
  4  3  1  0  0  0  0
 21 20  2  0  0  0  0
 14 16  2  0  0  0  0
M  END
> <#>
1926

> <PLATE>
LAT025

> <ROW>
F

> <COL>
2

> <COORD>
F02

> <LATID>
LAT025F02

> <Supplier>
Chembridge

> <Suplier_CAT#>
5600879

> <Name>
Novel

> <Sec_Name>
181_C10

> <Concentration_(mM)>
2.5

> <IC50_(µM)>
87

> <Yeast_Active?>
-

> <Pubchem_CID>
781014

$$$$
