
  -ISIS-  08130814242D

 24 26  0  0  0  0  0  0  0  0999 V2000
    2.1542   -0.1875    0.0000 C   0  0  0  0  0  0  0  0  0  0  0  0
    0.5167   -0.2000    0.0000 C   0  0  0  0  0  0  0  0  0  0  0  0
    2.1542   -1.1375    0.0000 C   0  0  0  0  0  0  0  0  0  0  0  0
    1.3500    0.2833    0.0000 C   0  0  0  0  0  0  0  0  0  0  0  0
   -1.1208   -0.1875    0.0000 N   0  0  0  0  0  0  0  0  0  0  0  0
   -0.3000    0.2958    0.0000 C   0  0  0  0  0  0  0  0  0  0  0  0
    2.9667   -1.6000    0.0000 N   0  0  3  0  0  0  0  0  0  0  0  0
   -3.5625    0.2958    0.0000 C   0  0  0  0  0  0  0  0  0  0  0  0
   -2.7500   -0.1792    0.0000 C   0  0  0  0  0  0  0  0  0  0  0  0
    0.5167   -1.1375    0.0000 C   0  0  0  0  0  0  0  0  0  0  0  0
    1.3375   -1.6167    0.0000 C   0  0  0  0  0  0  0  0  0  0  0  0
   -1.9458    0.2958    0.0000 C   0  0  0  0  0  0  0  0  0  0  0  0
   -3.5625    1.2333    0.0000 C   0  0  0  0  0  0  0  0  0  0  0  0
   -2.7500    1.7000    0.0000 C   0  0  0  0  0  0  0  0  0  0  0  0
    1.3500    1.2208    0.0000 O   0  0  0  0  0  0  0  0  0  0  0  0
   -1.9458    1.2333    0.0000 C   0  0  0  0  0  0  0  0  0  0  0  0
    3.7792   -1.1292    0.0000 C   0  0  0  0  0  0  0  0  0  0  0  0
    2.9667   -2.5375    0.0000 C   0  0  0  0  0  0  0  0  0  0  0  0
   -4.3708   -0.1792    0.0000 C   0  0  0  0  0  0  0  0  0  0  0  0
   -4.3708    1.7000    0.0000 C   0  0  0  0  0  0  0  0  0  0  0  0
    3.7792   -0.1875    0.0000 C   0  0  0  0  0  0  0  0  0  0  0  0
    2.1542   -3.0042    0.0000 C   0  0  0  0  0  0  0  0  0  0  0  0
   -5.1833    0.2958    0.0000 C   0  0  0  0  0  0  0  0  0  0  0  0
   -5.1833    1.2333    0.0000 C   0  0  0  0  0  0  0  0  0  0  0  0
  2  4  2  0  0  0  0
  3  1  2  0  0  0  0
  4  1  1  0  0  0  0
  5  6  2  0  0  0  0
  6  2  1  0  0  0  0
  7  3  1  0  0  0  0
  8  9  1  0  0  0  0
  9 12  2  0  0  0  0
 10  2  1  0  0  0  0
 11  3  1  0  0  0  0
 12  5  1  0  0  0  0
 13 14  1  0  0  0  0
 14 16  2  0  0  0  0
 15  4  1  0  0  0  0
 16 12  1  0  0  0  0
 17  7  1  0  0  0  0
 18  7  1  0  0  0  0
 19  8  1  0  0  0  0
 20 13  1  0  0  0  0
 21 17  1  0  0  0  0
 22 18  1  0  0  0  0
 23 19  2  0  0  0  0
 24 20  2  0  0  0  0
 11 10  2  0  0  0  0
 13  8  2  0  0  0  0
 24 23  1  0  0  0  0
M  END
> <#>
642

> <PLATE>
LAT009

> <ROW>
B

> <COL>
2

> <COORD>
B02

> <LATID>
LAT009B02

> <Supplier>
Chembridge

> <Suplier_CAT#>
5490123

> <Name>
Novel

> <Sec_Name>
148_G11

> <Concentration_(mM)>
2.5

> <IC50_(µM)>
87

> <Yeast_Active?>
-

> <Pubchem_CID>
NULL

$$$$
