
  -ISIS-  08130814242D

 32 33  0  0  0  0  0  0  0  0999 V2000
    7.1625   -7.4917    0.0000 C   0  0  0  0  0  0  0  0  0  0  0  0
    8.9042   -7.8292    0.0000 C   0  0  0  0  0  0  0  0  0  0  0  0
    8.3250   -7.4917    0.0000 C   0  0  0  0  0  0  0  0  0  0  0  0
    7.7417   -7.8292    0.0000 C   0  0  0  0  0  0  0  0  0  0  0  0
    7.1625   -6.8167    0.0000 O   0  0  0  0  0  0  0  0  0  0  0  0
    8.9042   -8.5042    0.0000 O   0  0  0  0  0  0  0  0  0  0  0  0
    6.5792   -7.8292    0.0000 O   0  0  0  0  0  0  0  0  0  0  0  0
    9.4917   -7.4917    0.0000 O   0  0  0  0  0  0  0  0  0  0  0  0
    6.7667   -5.2792    0.0000 C   0  0  1  0  0  0  0  0  0  0  0  0
    4.7042   -7.4125    0.0000 N   0  0  3  0  0  0  0  0  0  0  0  0
    6.7667   -4.4542    0.0000 C   0  0  0  0  0  0  0  0  0  0  0  0
    4.2917   -6.6917    0.0000 C   0  0  1  0  0  0  0  0  0  0  0  0
    7.5917   -5.2792    0.0000 C   0  0  0  0  0  0  0  0  0  0  0  0
    7.4875   -4.0417    0.0000 C   0  0  0  0  0  0  0  0  0  0  0  0
    6.0542   -4.0417    0.0000 C   0  0  0  0  0  0  0  0  0  0  0  0
    5.9417   -5.2667    0.0000 O   0  0  0  0  0  0  0  0  0  0  0  0
    6.7667   -2.8000    0.0000 C   0  0  0  0  0  0  0  0  0  0  0  0
    4.7042   -5.9792    0.0000 C   0  0  0  0  0  0  0  0  0  0  0  0
    6.0542   -3.2125    0.0000 C   0  0  0  0  0  0  0  0  0  0  0  0
    7.4875   -3.2125    0.0000 C   0  0  0  0  0  0  0  0  0  0  0  0
    6.7667   -1.9750    0.0000 Cl  0  0  0  0  0  0  0  0  0  0  0  0
    4.1417   -8.0292    0.0000 C   0  0  0  0  0  0  0  0  0  0  0  0
    5.5292   -5.9792    0.0000 C   0  0  0  0  0  0  0  0  0  0  0  0
    5.5292   -7.4917    0.0000 C   0  0  0  0  0  0  0  0  0  0  0  0
    6.7667   -6.1042    0.0000 C   0  0  0  0  0  0  0  0  0  0  0  0
    3.4000   -7.6875    0.0000 C   0  0  0  0  0  0  0  0  0  0  0  0
    3.4792   -6.8667    0.0000 C   0  0  0  0  0  0  0  0  0  0  0  0
    8.0042   -5.9917    0.0000 C   0  0  0  0  0  0  0  0  0  0  0  0
    8.0042   -4.5625    0.0000 C   0  0  0  0  0  0  0  0  0  0  0  0
    8.8375   -4.5625    0.0000 C   0  0  0  0  0  0  0  0  0  0  0  0
    8.8375   -5.9917    0.0000 C   0  0  0  0  0  0  0  0  0  0  0  0
    9.2500   -5.2792    0.0000 C   0  0  0  0  0  0  0  0  0  0  0  0
  6  2  2  0  0  0  0
  7  1  1  0  0  0  0
  8  2  1  0  0  0  0
  2  3  1  0  0  0  0
  3  4  2  0  0  0  0
  4  1  1  0  0  0  0
  5  1  2  0  0  0  0
 16  9  1  0  0  0  0
 17 19  2  0  0  0  0
 18 23  1  0  0  0  0
 19 15  1  0  0  0  0
 20 14  2  0  0  0  0
 21 17  1  0  0  0  0
 22 10  1  0  0  0  0
 23 16  1  0  0  0  0
 24 10  1  0  0  0  0
  9 25  1  6  0  0  0
 26 27  1  0  0  0  0
 27 12  1  0  0  0  0
 28 13  2  0  0  0  0
 29 13  1  0  0  0  0
 30 29  2  0  0  0  0
 31 28  1  0  0  0  0
 32 30  1  0  0  0  0
 20 17  1  0  0  0  0
 32 31  2  0  0  0  0
 22 26  1  0  0  0  0
 10 12  1  0  0  0  0
 11  9  1  0  0  0  0
 12 18  1  6  0  0  0
 13  9  1  0  0  0  0
 14 11  1  0  0  0  0
 15 11  2  0  0  0  0
M  END
> <#>
149

> <PLATE>
LAT002

> <ROW>
E

> <COL>
10

> <COORD>
E10

> <LATID>
LAT002E10

> <Supplier>
Microsource

> <Suplier_CAT#>
01500191

> <Name>
Clemastine

> <Concentration_(mM)>
2.5

> <IC50_(µM)>
>100

> <Yeast_Active?>
-

> <Pubchem_CID>
26986

> <Description>
Antihistaminic

$$$$
