
  -ISIS-  08130814242D

 21 22  0  0  0  0  0  0  0  0999 V2000
    6.2792   -2.9292    0.0000 C   0  0  0  0  0  0  0  0  0  0  0  0
    5.5667   -4.1667    0.0000 N   0  0  0  0  0  0  0  0  0  0  0  0
    5.5667   -2.5167    0.0000 N   0  0  0  0  0  0  0  0  0  0  0  0
    4.8542   -3.7542    0.0000 C   0  0  0  0  0  0  0  0  0  0  0  0
    7.0042   -2.5167    0.0000 C   0  0  0  0  0  0  0  0  0  0  0  0
    6.2792   -3.7542    0.0000 C   0  0  0  0  0  0  0  0  0  0  0  0
    4.8542   -2.9292    0.0000 C   0  0  0  0  0  0  0  0  0  0  0  0
    7.7167   -2.9250    0.0000 N   0  0  0  0  0  0  0  0  0  0  0  0
    8.4292   -2.5167    0.0000 C   0  0  0  0  0  0  0  0  0  0  0  0
    4.1292   -4.1792    0.0000 N   0  0  3  0  0  0  0  0  0  0  0  0
    8.4167   -1.6917    0.0000 N   0  0  0  0  0  0  0  0  0  0  0  0
    7.0042   -1.6875    0.0000 O   0  0  0  0  0  0  0  0  0  0  0  0
    7.0042   -4.1792    0.0000 N   0  0  0  0  0  0  0  0  0  0  0  0
    4.1292   -2.5167    0.0000 Cl  0  0  0  0  0  0  0  0  0  0  0  0
    9.1417   -2.9292    0.0000 N   0  0  0  0  0  0  0  0  0  0  0  0
    3.4250   -3.6625    0.0000 C   0  0  0  0  0  0  0  0  0  0  0  0
    4.2250   -4.9250    0.0000 C   0  0  0  0  0  0  0  0  0  0  0  0
    3.6000   -5.5042    0.0000 C   0  0  0  0  0  0  0  0  0  0  0  0
    2.7042   -3.7750    0.0000 C   0  0  0  0  0  0  0  0  0  0  0  0
    2.3167   -4.5292    0.0000 C   0  0  0  0  0  0  0  0  0  0  0  0
    2.7167   -5.3292    0.0000 C   0  0  0  0  0  0  0  0  0  0  0  0
  2  6  1  0  0  0  0
  3  1  1  0  0  0  0
  4  2  2  0  0  0  0
  5  1  1  0  0  0  0
  6  1  2  0  0  0  0
  7  3  2  0  0  0  0
  8  5  1  0  0  0  0
  9  8  1  0  0  0  0
 10  4  1  0  0  0  0
 11  9  2  0  0  0  0
 12  5  2  0  0  0  0
 13  6  1  0  0  0  0
 14  7  1  0  0  0  0
 15  9  1  0  0  0  0
 16 10  1  0  0  0  0
 17 10  1  0  0  0  0
 18 17  1  0  0  0  0
 19 16  1  0  0  0  0
 20 19  1  0  0  0  0
 21 18  1  0  0  0  0
  7  4  1  0  0  0  0
 20 21  1  0  0  0  0
M  END
> <#>
144

> <PLATE>
LAT002

> <ROW>
H

> <COL>
9

> <COORD>
H09

> <LATID>
LAT002H09

> <Supplier>
Microsource

> <Suplier_CAT#>
01504215

> <Name>
N,N-Hexamethyleneamiloride

> <Concentration_(mM)>
2.5

> <IC50_(µM)>
16

> <Yeast_Active?>
-

> <Pubchem_CID>
1794

> <Description>
Na/H+ Antiporter Inhibitor, Diuretic

$$$$
