
  -ISIS-  08130814242D

 31 32  0  0  0  0  0  0  0  0999 V2000
   -3.1000    0.1125    0.0000 N   0  0  3  0  0  0  0  0  0  0  0  0
   -2.5625   -0.6667    0.0000 C   0  0  0  0  0  0  0  0  0  0  0  0
   -3.1000   -1.4500    0.0000 N   0  0  3  0  0  0  0  0  0  0  0  0
   -4.0458   -0.1875    0.0000 C   0  0  0  0  0  0  0  0  0  0  0  0
   -4.0458   -1.1542    0.0000 C   0  0  0  0  0  0  0  0  0  0  0  0
    0.1000    0.6958    0.0000 C   0  0  0  0  0  0  0  0  0  0  0  0
    0.1167    2.3333    0.0000 C   0  0  0  0  0  0  0  0  0  0  0  0
    0.5875    1.5125    0.0000 C   0  0  0  0  0  0  0  0  0  0  0  0
   -3.1000    1.0708    0.0000 C   0  0  0  0  0  0  0  0  0  0  0  0
   -1.3333    1.5500    0.0000 C   0  0  0  0  0  0  0  0  0  0  0  0
   -0.8708    0.7000    0.0000 C   0  0  0  0  0  0  0  0  0  0  0  0
   -0.8500    2.3458    0.0000 C   0  0  0  0  0  0  0  0  0  0  0  0
   -2.2708    1.5500    0.0000 C   0  0  0  0  0  0  0  0  0  0  0  0
   -1.6125   -0.6667    0.0000 N   0  0  0  0  0  0  0  0  0  0  0  0
    0.5792   -0.1375    0.0000 C   0  0  3  0  0  0  0  0  0  0  0  0
    0.6167    3.1458    0.0000 C   0  0  3  0  0  0  0  0  0  0  0  0
   -2.2625    2.5000    0.0000 O   0  0  0  0  0  0  0  0  0  0  0  0
    1.5667    1.5333    0.0000 O   0  0  0  0  0  0  0  0  0  0  0  0
   -3.1000   -2.4042    0.0000 C   0  0  0  0  0  0  0  0  0  0  0  0
   -4.8833    0.3000    0.0000 C   0  0  0  0  0  0  0  0  0  0  0  0
   -4.8833   -1.6375    0.0000 C   0  0  0  0  0  0  0  0  0  0  0  0
    1.4042    0.3458    0.0000 C   0  0  0  0  0  0  0  0  0  0  0  0
   -0.2500   -0.6167    0.0000 C   0  0  0  0  0  0  0  0  0  0  0  0
    1.0500   -0.9542    0.0000 C   0  0  0  0  0  0  0  0  0  0  0  0
    1.1042    3.9458    0.0000 C   0  0  0  0  0  0  0  0  0  0  0  0
   -0.1958    3.6458    0.0000 C   0  0  0  0  0  0  0  0  0  0  0  0
    1.4292    2.6458    0.0000 C   0  0  0  0  0  0  0  0  0  0  0  0
   -2.2708   -2.8875    0.0000 C   0  0  0  0  0  0  0  0  0  0  0  0
   -5.7208   -1.1542    0.0000 C   0  0  0  0  0  0  0  0  0  0  0  0
   -5.7208   -0.1875    0.0000 C   0  0  0  0  0  0  0  0  0  0  0  0
    2.3792   -2.7292    0.0000 Cl  0  0  0  0  0  0  0  0  0  0  0  0
  2  1  1  0  0  0  0
  3  2  1  0  0  0  0
  4  1  1  0  0  0  0
  5  4  2  0  0  0  0
  6 11  2  0  0  0  0
  7 12  1  0  0  0  0
  8  7  2  0  0  0  0
  9  1  1  0  0  0  0
 10 13  1  0  0  0  0
 11 10  1  0  0  0  0
 12 10  2  0  0  0  0
 13  9  1  0  0  0  0
 14  2  2  0  0  0  0
 15  6  1  0  0  0  0
 16  7  1  0  0  0  0
 17 13  2  0  0  0  0
 18  8  1  0  0  0  0
 19  3  1  0  0  0  0
 20  4  1  0  0  0  0
 21  5  1  0  0  0  0
 22 15  1  0  0  0  0
 23 15  1  0  0  0  0
 24 15  1  0  0  0  0
 25 16  1  0  0  0  0
 26 16  1  0  0  0  0
 27 16  1  0  0  0  0
 28 19  1  0  0  0  0
 29 30  1  0  0  0  0
 30 20  2  0  0  0  0
  3  5  1  0  0  0  0
 29 21  2  0  0  0  0
  6  8  1  0  0  0  0
M  END
> <#>
1398

> <PLATE>
LAT018

> <ROW>
F

> <COL>
6

> <COORD>
F06

> <LATID>
LAT018F06

> <Supplier>
Chembridge

> <Suplier_CAT#>
5569100

> <Name>
Novel

> <Concentration_(mM)>
2.5

> <IC50_(µM)>
66

> <Yeast_Active?>
-

> <Pubchem_CID>
1369738

$$$$
