
  -ISIS-  08130814242D

 19 20  0  0  0  0  0  0  0  0999 V2000
   -1.4625    1.9000    0.0000 C   0  0  0  0  0  0  0  0  0  0  0  0
   -0.6458    1.4333    0.0000 C   0  0  0  0  0  0  0  0  0  0  0  0
   -2.2958    1.4333    0.0000 C   0  0  0  0  0  0  0  0  0  0  0  0
    0.1792    1.9000    0.0000 C   0  0  0  0  0  0  0  0  0  0  0  0
    1.0000    1.4333    0.0000 C   0  0  0  0  0  0  0  0  0  0  0  0
   -3.1000    1.9000    0.0000 C   0  0  0  0  0  0  0  0  0  0  0  0
   -1.4625    2.8333    0.0000 O   0  0  0  0  0  0  0  0  0  0  0  0
    0.1792    2.8333    0.0000 O   0  0  0  0  0  0  0  0  0  0  0  0
    0.9875    0.4833    0.0000 C   0  0  0  0  0  0  0  0  0  0  0  0
    1.8042    1.9000    0.0000 C   0  0  0  0  0  0  0  0  0  0  0  0
    2.6292    0.4833    0.0000 C   0  0  0  0  0  0  0  0  0  0  0  0
    2.6292    1.4333    0.0000 C   0  0  0  0  0  0  0  0  0  0  0  0
    1.8042    0.0125    0.0000 C   0  0  0  0  0  0  0  0  0  0  0  0
    3.4292    0.0000    0.0000 Cl  0  0  0  0  0  0  0  0  0  0  0  0
   -3.1000    2.8458    0.0000 O   0  0  0  0  0  0  0  0  0  0  0  0
   -2.2958    0.4958    0.0000 C   0  0  0  0  0  0  0  0  0  0  0  0
   -3.9125    1.4333    0.0000 C   0  0  0  0  0  0  0  0  0  0  0  0
   -3.1000    0.0208    0.0000 C   0  0  0  0  0  0  0  0  0  0  0  0
   -3.9125    0.4958    0.0000 C   0  0  0  0  0  0  0  0  0  0  0  0
  2  1  1  0  0  0  0
  3  1  1  0  0  0  0
  4  2  1  0  0  0  0
  5  4  1  0  0  0  0
  6  3  1  0  0  0  0
  7  1  2  0  0  0  0
  8  4  2  0  0  0  0
  9  5  1  0  0  0  0
 10  5  2  0  0  0  0
 11 12  2  0  0  0  0
 12 10  1  0  0  0  0
 13  9  2  0  0  0  0
 14 11  1  0  0  0  0
 15  6  1  0  0  0  0
 16  3  2  0  0  0  0
 17  6  2  0  0  0  0
 18 16  1  0  0  0  0
 19 18  2  0  0  0  0
 17 19  1  0  0  0  0
 11 13  1  0  0  0  0
M  END
> <#>
1140

> <PLATE>
LAT015

> <ROW>
D

> <COL>
4

> <COORD>
D04

> <LATID>
LAT015D04

> <Supplier>
Chembridge

> <Suplier_CAT#>
5466956

> <Name>
Novel

> <Sec_Name>
131_H10

> <Concentration_(mM)>
2.5

> <IC50_(µM)>
inactive

> <Yeast_Active?>
-

> <Pubchem_CID>
724419

$$$$
