
  -ISIS-  08130814242D

 16 16  0  0  0  0  0  0  0  0999 V2000
    6.8500   -1.8281    0.0000 C   0  0  0  0  0  0  0  0  0  0  0  0
    5.7675   -1.2031    0.0000 C   0  0  3  0  0  0  0  0  0  0  0  0
    5.1425   -2.2857    0.0000 C   0  0  0  0  0  0  0  0  0  0  0  0
    6.3925   -0.1206    0.0000 C   0  0  0  0  0  0  0  0  0  0  0  0
    7.0175    0.9619    0.0000 C   0  0  0  0  0  0  0  0  0  0  0  0
    4.6850   -0.5781    0.0000 N   0  0  0  0  0  0  0  0  0  0  0  0
    3.6024   -1.2031    0.0000 C   0  0  0  0  0  0  0  0  0  0  0  0
    3.6024   -2.4531    0.0000 O   0  0  0  0  0  0  0  0  0  0  0  0
    2.5199   -0.5781    0.0000 C   0  0  0  0  0  0  0  0  0  0  0  0
    1.4374   -1.2031    0.0000 C   0  0  0  0  0  0  0  0  0  0  0  0
    0.3548   -0.5781    0.0000 C   0  0  0  0  0  0  0  0  0  0  0  0
    0.3548    0.6719    0.0000 C   0  0  0  0  0  0  0  0  0  0  0  0
    1.4374    1.2969    0.0000 C   0  0  0  0  0  0  0  0  0  0  0  0
    2.5199    0.6719    0.0000 C   0  0  0  0  0  0  0  0  0  0  0  0
    1.4374    2.5469    0.0000 Cl  0  0  0  0  0  0  0  0  0  0  0  0
   -0.7277   -1.2031    0.0000 Cl  0  0  0  0  0  0  0  0  0  0  0  0
  1  2  1  0  0  0  0
  2  3  1  0  0  0  0
  2  4  1  0  0  0  0
  4  5  3  0  0  0  0
  2  6  1  0  0  0  0
  6  7  1  0  0  0  0
  7  8  2  0  0  0  0
  7  9  1  0  0  0  0
  9 10  2  0  0  0  0
 10 11  1  0  0  0  0
 11 12  2  0  0  0  0
 12 13  1  0  0  0  0
 13 14  2  0  0  0  0
  9 14  1  0  0  0  0
 13 15  1  0  0  0  0
 11 16  1  0  0  0  0
M  END
> <#>
537

> <PLATE>
LAT007

> <ROW>
A

> <COL>
9

> <COORD>
A09

> <LATID>
LAT007A09

> <Supplier>
ChemService

> <Suplier_CAT#>
Propyzamide

> <Name>
Propyzamide

> <Concentration_(mM)>
2.5

> <IC50_(µM)>
2.3

> <Yeast_Active?>
-

> <Pubchem_CID>
32154

$$$$
