
  -ISIS-  08130814242D

 12 11  0  0  0  0  0  0  0  0999 V2000
    0.7667   -1.6750    0.0000 C   0  0  0  0  0  0  0  0  0  0  0  0
    2.9042   -1.2542    0.0000 C   0  0  0  0  0  0  0  0  0  0  0  0
    2.1917   -1.6667    0.0000 S   0  0  0  0  0  0  0  0  0  0  0  0
    1.4792   -1.2625    0.0000 S   0  0  0  0  0  0  0  0  0  0  0  0
    0.7667   -2.5000    0.0000 S   0  0  0  0  0  0  0  0  0  0  0  0
    2.9000   -0.4292    0.0000 S   0  0  0  0  0  0  0  0  0  0  0  0
    0.0542   -1.2667    0.0000 N   0  0  3  0  0  0  0  0  0  0  0  0
    3.6167   -1.6667    0.0000 N   0  0  3  0  0  0  0  0  0  0  0  0
   -0.6583   -1.6792    0.0000 C   0  0  0  0  0  0  0  0  0  0  0  0
    0.0500   -0.4417    0.0000 C   0  0  0  0  0  0  0  0  0  0  0  0
    3.6167   -2.4917    0.0000 C   0  0  0  0  0  0  0  0  0  0  0  0
    4.3292   -1.2500    0.0000 C   0  0  0  0  0  0  0  0  0  0  0  0
  2  3  1  0  0  0  0
  3  4  1  0  0  0  0
  4  1  1  0  0  0  0
  5  1  2  0  0  0  0
  6  2  2  0  0  0  0
  7  1  1  0  0  0  0
  8  2  1  0  0  0  0
  9  7  1  0  0  0  0
 10  7  1  0  0  0  0
 11  8  1  0  0  0  0
 12  8  1  0  0  0  0
M  END
> <#>
151

> <PLATE>
LAT002

> <ROW>
G

> <COL>
10

> <COORD>
G10

> <LATID>
LAT002G10

> <Supplier>
Microsource

> <Suplier_CAT#>
01503322

> <Name>
Thiram

> <Concentration_(mM)>
2.5

> <IC50_(µM)>
10

> <Yeast_Active?>
+

> <Pubchem_CID>
5455

> <Description>
Antifungal

$$$$
