
  -ISIS-  08130814242D

 20 22  0  0  0  0  0  0  0  0999 V2000
    0.0667    1.7125    0.0000 N   0  0  0  0  0  0  0  0  0  0  0  0
    0.6292    2.0208    0.0000 C   0  0  0  0  0  0  0  0  0  0  0  0
   -0.4458    2.0208    0.0000 C   0  0  0  0  0  0  0  0  0  0  0  0
    0.0667    2.9583    0.0000 C   0  0  0  0  0  0  0  0  0  0  0  0
   -0.4458    2.6333    0.0000 C   0  0  0  0  0  0  0  0  0  0  0  0
    1.1500    1.0500    0.0000 N   0  0  0  0  0  0  0  0  0  0  0  0
    0.6292    2.6500    0.0000 C   0  0  0  0  0  0  0  0  0  0  0  0
    1.1667    1.6708    0.0000 N   0  0  0  0  0  0  0  0  0  0  0  0
    1.6042   -1.1000    0.0000 N   0  0  0  0  0  0  0  0  0  0  0  0
    1.6667    0.7333    0.0000 C   0  0  0  0  0  0  0  0  0  0  0  0
    1.6500    0.1125    0.0000 C   0  0  0  0  0  0  0  0  0  0  0  0
    0.0667    3.5708    0.0000 C   0  0  0  0  0  0  0  0  0  0  0  0
   -0.9833    1.7125    0.0000 C   0  0  0  0  0  0  0  0  0  0  0  0
   -0.9833    2.9583    0.0000 C   0  0  0  0  0  0  0  0  0  0  0  0
    1.1000   -0.7792    0.0000 C   0  0  0  0  0  0  0  0  0  0  0  0
    2.1667   -0.8000    0.0000 C   0  0  0  0  0  0  0  0  0  0  0  0
    2.1667   -0.1792    0.0000 C   0  0  0  0  0  0  0  0  0  0  0  0
    1.1042   -0.1792    0.0000 C   0  0  0  0  0  0  0  0  0  0  0  0
   -1.5208    2.0208    0.0000 C   0  0  0  0  0  0  0  0  0  0  0  0
   -1.5208    2.6500    0.0000 C   0  0  0  0  0  0  0  0  0  0  0  0
  2  1  1  0  0  0  0
  3  1  2  0  0  0  0
  4  5  2  0  0  0  0
  5  3  1  0  0  0  0
  6  8  1  0  0  0  0
  7  2  2  0  0  0  0
  8  2  1  0  0  0  0
  9 15  2  0  0  0  0
 10  6  2  0  0  0  0
 11 10  1  0  0  0  0
 12  4  1  0  0  0  0
 13  3  1  0  0  0  0
 14  5  1  0  0  0  0
 15 18  1  0  0  0  0
 16 17  2  0  0  0  0
 17 11  1  0  0  0  0
 18 11  2  0  0  0  0
 19 13  2  0  0  0  0
 20 19  1  0  0  0  0
  4  7  1  0  0  0  0
 20 14  2  0  0  0  0
 16  9  1  0  0  0  0
M  END
> <#>
1863

> <PLATE>
LAT024

> <ROW>
G

> <COL>
4

> <COORD>
G04

> <LATID>
LAT024G04

> <Supplier>
Chembridge

> <Suplier_CAT#>
5773896

> <Name>
Pyrhydraquin

> <Sec_Name>
244_B06

> <Concentration_(mM)>
2.5

> <IC50_(µM)>
3

> <Yeast_Active?>
-

> <Pubchem_CID>
5726045

> <Comment>
SS18

$$$$
