
  -ISIS-  08130814242D

 12 13  0  0  0  0  0  0  0  0999 V2000
   -3.8121    2.4365    0.0000 N   0  0  0  0  0  0  0  0  0  0  0  0
   -3.4396    1.9238    0.0000 N   0  0  0  0  0  0  0  0  0  0  0  0
   -3.8121    1.4111    0.0000 C   0  0  0  0  0  0  0  0  0  0  0  0
   -4.4148    1.6069    0.0000 C   0  0  0  0  0  0  0  0  0  0  0  0
   -4.9637    1.2901    0.0000 C   0  0  0  0  0  0  0  0  0  0  0  0
   -5.5125    1.6069    0.0000 C   0  0  0  0  0  0  0  0  0  0  0  0
   -5.5125    2.2407    0.0000 C   0  0  0  0  0  0  0  0  0  0  0  0
   -4.9637    2.5576    0.0000 C   0  0  0  0  0  0  0  0  0  0  0  0
   -4.4148    2.2407    0.0000 C   0  0  0  0  0  0  0  0  0  0  0  0
   -4.9637    3.1913    0.0000 N   0  3  0  0  0  0  0  0  0  0  0  0
   -5.5125    3.5082    0.0000 O   0  0  0  0  0  0  0  0  0  0  0  0
   -4.4148    3.5082    0.0000 O   0  5  0  0  0  0  0  0  0  0  0  0
  1  2  1  0  0  0  0
  2  3  2  0  0  0  0
  3  4  1  0  0  0  0
  4  5  1  0  0  0  0
  5  6  2  0  0  0  0
  6  7  1  0  0  0  0
  7  8  2  0  0  0  0
  8  9  1  0  0  0  0
  1  9  1  0  0  0  0
  4  9  2  0  0  0  0
 10 11  2  0  0  0  0
 10 12  1  0  0  0  0
  8 10  1  0  0  0  0
M  CHG  2  10   1  12  -1
M  END
> <#>
457

> <PLATE>
LAT006

> <ROW>
A

> <COL>
9

> <COORD>
A09

> <LATID>
LAT006A09

> <Supplier>
Sigma

> <Suplier_CAT#>
N-7778

> <Name>
7-Nitroindazole

> <Concentration_(mM)>
2.5

> <IC50_(µM)>
13

> <Yeast_Active?>
-

> <Pubchem_CID>
1893

$$$$
