
  -ISIS-  08130814242D

 21 22  0  0  0  0  0  0  0  0999 V2000
    1.2917   -1.4625    0.0000 C   0  0  0  0  0  0  0  0  0  0  0  0
    1.2917   -0.6250    0.0000 C   0  0  0  0  0  0  0  0  0  0  0  0
    0.5750   -1.8667    0.0000 C   0  0  0  0  0  0  0  0  0  0  0  0
    0.5792   -0.2167    0.0000 C   0  0  0  0  0  0  0  0  0  0  0  0
   -0.1333   -0.6292    0.0000 C   0  0  0  0  0  0  0  0  0  0  0  0
    2.0042   -1.8792    0.0000 C   0  0  0  0  0  0  0  0  0  0  0  0
   -0.1375   -1.4542    0.0000 C   0  0  0  0  0  0  0  0  0  0  0  0
    2.7292   -1.4625    0.0000 C   0  0  0  0  0  0  0  0  0  0  0  0
    2.0042   -2.7042    0.0000 O   0  0  0  0  0  0  0  0  0  0  0  0
    3.4500   -1.8792    0.0000 O   0  0  0  0  0  0  0  0  0  0  0  0
    2.0042   -0.2042    0.0000 O   0  0  0  0  0  0  0  0  0  0  0  0
    4.1625   -1.4625    0.0000 C   0  0  0  0  0  0  0  0  0  0  0  0
    5.5792   -0.6292    0.0000 C   0  0  0  0  0  0  0  0  0  0  0  0
   -0.8500   -0.2167    0.0000 O   0  0  0  0  0  0  0  0  0  0  0  0
    6.2917   -0.2125    0.0000 F   0  0  0  0  0  0  0  0  0  0  0  0
    4.1542   -0.6417    0.0000 C   0  0  0  0  0  0  0  0  0  0  0  0
    4.8792   -1.8667    0.0000 C   0  0  0  0  0  0  0  0  0  0  0  0
    5.5875   -1.4542    0.0000 C   0  0  0  0  0  0  0  0  0  0  0  0
    4.8625   -0.2167    0.0000 C   0  0  0  0  0  0  0  0  0  0  0  0
   -0.8583   -1.8625    0.0000 C   0  0  0  0  0  0  0  0  0  0  0  0
   -0.8583   -2.6875    0.0000 C   0  0  0  0  0  0  0  0  0  0  0  0
  2  1  1  0  0  0  0
  3  1  2  0  0  0  0
  4  2  2  0  0  0  0
  5  7  2  0  0  0  0
  6  1  1  0  0  0  0
  7  3  1  0  0  0  0
  8  6  1  0  0  0  0
  9  6  2  0  0  0  0
 10  8  1  0  0  0  0
 11  2  1  0  0  0  0
 12 10  1  0  0  0  0
 13 18  2  0  0  0  0
 14  5  1  0  0  0  0
 15 13  1  0  0  0  0
 16 12  1  0  0  0  0
 17 12  2  0  0  0  0
 18 17  1  0  0  0  0
 19 16  2  0  0  0  0
 20  7  1  0  0  0  0
 21 20  1  0  0  0  0
  4  5  1  0  0  0  0
 19 13  1  0  0  0  0
M  END
> <#>
1340

> <PLATE>
LAT017

> <ROW>
D

> <COL>
9

> <COORD>
D09

> <LATID>
LAT017D09

> <Supplier>
Chembridge

> <Suplier_CAT#>
7353862

> <Name>
Novel

> <Concentration_(mM)>
2.5

> <IC50_(µM)>
31

> <Yeast_Active?>
-

> <Pubchem_CID>
888436

$$$$
