
  -ISIS-  08130814242D

 24 26  0  0  0  0  0  0  0  0999 V2000
   -2.1708   -0.2375    0.0000 S   0  0  3  0  0  0  0  0  0  0  0  0
   -1.8333    0.3833    0.0000 C   0  0  0  0  0  0  0  0  0  0  0  0
   -2.1708    0.9625    0.0000 C   0  0  0  0  0  0  0  0  0  0  0  0
   -2.5125   -0.8375    0.0000 N   0  0  0  0  0  0  0  0  0  0  0  0
   -1.8333    1.5458    0.0000 C   0  0  0  0  0  0  0  0  0  0  0  0
   -1.1500    0.3833    0.0000 C   0  0  0  0  0  0  0  0  0  0  0  0
   -1.5708   -0.5792    0.0000 O   0  0  0  0  0  0  0  0  0  0  0  0
   -2.7708    0.1208    0.0000 O   0  0  0  0  0  0  0  0  0  0  0  0
   -1.1500    1.5458    0.0000 C   0  0  0  0  0  0  0  0  0  0  0  0
   -0.8125    0.9625    0.0000 C   0  0  0  0  0  0  0  0  0  0  0  0
   -3.1958   -0.8375    0.0000 C   0  0  0  0  0  0  0  0  0  0  0  0
   -0.7958    2.1208    0.0000 O   0  0  0  0  0  0  0  0  0  0  0  0
   -3.5333   -1.4167    0.0000 C   0  0  0  0  0  0  0  0  0  0  0  0
   -2.8500    0.9833    0.0000 C   0  0  0  0  0  0  0  0  0  0  0  0
   -2.1708    2.1458    0.0000 C   0  0  0  0  0  0  0  0  0  0  0  0
   -0.1208    2.1208    0.0000 C   0  0  0  0  0  0  0  0  0  0  0  0
   -4.2083   -1.4167    0.0000 C   0  0  0  0  0  0  0  0  0  0  0  0
   -3.1958   -2.0000    0.0000 C   0  0  0  0  0  0  0  0  0  0  0  0
   -3.1958    1.5625    0.0000 C   0  0  0  0  0  0  0  0  0  0  0  0
   -2.8500    2.1458    0.0000 C   0  0  0  0  0  0  0  0  0  0  0  0
    0.2292    2.6833    0.0000 C   0  0  0  0  0  0  0  0  0  0  0  0
   -3.5208   -2.5792    0.0000 C   0  0  0  0  0  0  0  0  0  0  0  0
   -4.5208   -2.0000    0.0000 C   0  0  0  0  0  0  0  0  0  0  0  0
   -4.1958   -2.5792    0.0000 C   0  0  0  0  0  0  0  0  0  0  0  0
  2  1  1  0  0  0  0
  3  2  1  0  0  0  0
  4  1  1  0  0  0  0
  5  3  2  0  0  0  0
  6  2  2  0  0  0  0
  7  1  2  0  0  0  0
  8  1  2  0  0  0  0
  9 10  2  0  0  0  0
 10  6  1  0  0  0  0
 11  4  1  0  0  0  0
 12  9  1  0  0  0  0
 13 11  1  0  0  0  0
 14  3  1  0  0  0  0
 15  5  1  0  0  0  0
 16 12  1  0  0  0  0
 17 13  1  0  0  0  0
 18 13  2  0  0  0  0
 19 14  2  0  0  0  0
 20 19  1  0  0  0  0
 21 16  1  0  0  0  0
 22 18  1  0  0  0  0
 23 17  2  0  0  0  0
 24 22  2  0  0  0  0
  5  9  1  0  0  0  0
 20 15  2  0  0  0  0
 24 23  1  0  0  0  0
M  END
> <#>
1908

> <PLATE>
LAT024

> <ROW>
D

> <COL>
10

> <COORD>
D10

> <LATID>
LAT024D10

> <Supplier>
Chembridge

> <Suplier_CAT#>
5242733

> <Name>
S001 D03

> <Concentration_(mM)>
2.5

> <IC50_(µM)>
inactive

> <Yeast_Active?>
-

> <Pubchem_CID>
2288414

$$$$
