
  -ISIS-  08130814242D

 25 26  0  0  0  0  0  0  0  0999 V2000
    4.6792   -1.8958    0.0000 C   0  0  0  0  0  0  0  0  0  0  0  0
    4.6792   -2.7208    0.0000 C   0  0  0  0  0  0  0  0  0  0  0  0
    5.3912   -3.1292    0.0000 C   0  0  3  0  0  0  0  0  0  0  0  0
    6.1032   -2.7208    0.0000 C   0  0  0  0  0  0  0  0  0  0  0  0
    6.1032   -1.8958    0.0000 C   0  0  0  0  0  0  0  0  0  0  0  0
    5.3912   -1.4792    0.0000 N   0  0  0  0  0  0  0  0  0  0  0  0
    5.3912   -3.9542    0.0000 C   0  0  0  0  0  0  0  0  0  0  0  0
    4.6746   -4.3652    0.0000 C   0  0  0  0  0  0  0  0  0  0  0  0
    4.6743   -5.1894    0.0000 C   0  0  0  0  0  0  0  0  0  0  0  0
    5.3893   -5.6028    0.0000 C   0  0  0  0  0  0  0  0  0  0  0  0
    6.1061   -5.1858    0.0000 C   0  0  0  0  0  0  0  0  0  0  0  0
    6.1030   -4.3630    0.0000 C   0  0  0  0  0  0  0  0  0  0  0  0
    6.8221   -5.5958    0.0000 Cl  0  0  0  0  0  0  0  0  0  0  0  0
    3.9635   -1.4854    0.0000 C   0  0  0  0  0  0  0  0  0  0  0  0
    6.8189   -1.4854    0.0000 C   0  0  0  0  0  0  0  0  0  0  0  0
    6.8125   -3.1292    0.0000 C   0  0  0  0  0  0  0  0  0  0  0  0
    7.5250   -2.7167    0.0000 O   0  0  0  0  0  0  0  0  0  0  0  0
    8.2375   -3.1250    0.0000 C   0  0  0  0  0  0  0  0  0  0  0  0
    8.9500   -2.7125    0.0000 C   0  0  0  0  0  0  0  0  0  0  0  0
    3.9667   -3.1333    0.0000 C   0  0  0  0  0  0  0  0  0  0  0  0
    3.2542   -2.7208    0.0000 O   0  0  0  0  0  0  0  0  0  0  0  0
    2.5417   -3.1333    0.0000 C   0  0  0  0  0  0  0  0  0  0  0  0
    6.8010   -3.7750    0.0000 O   0  0  0  0  0  0  0  0  0  0  0  0
    3.9542   -3.7250    0.0000 O   0  0  0  0  0  0  0  0  0  0  0  0
    6.9250   -4.3625    0.0000 Cl  0  0  0  0  0  0  0  0  0  0  0  0
 12  7  1  0  0  0  0
  5  6  1  0  0  0  0
 11 13  1  0  0  0  0
  1 14  1  0  0  0  0
  3  7  1  0  0  0  0
  5 15  1  0  0  0  0
  1  2  2  0  0  0  0
  4 16  1  0  0  0  0
  7  8  2  0  0  0  0
 16 17  1  0  0  0  0
  1  6  1  0  0  0  0
 17 18  1  0  0  0  0
  8  9  1  0  0  0  0
 18 19  1  0  0  0  0
  2  3  1  0  0  0  0
  2 20  1  0  0  0  0
  9 10  2  0  0  0  0
 20 21  1  0  0  0  0
  3  4  1  0  0  0  0
 21 22  1  0  0  0  0
 10 11  1  0  0  0  0
 16 23  2  0  0  0  0
  4  5  2  0  0  0  0
 20 24  2  0  0  0  0
 11 12  2  0  0  0  0
 12 25  1  0  0  0  0
M  END
> <#>
233

> <PLATE>
LAT003

> <ROW>
A

> <COL>
11

> <COORD>
A11

> <LATID>
LAT003A11

> <Supplier>
Sigma

> <Suplier_CAT#>
F 9677

> <Name>
Felodipine

> <Concentration_(mM)>
2.5

> <IC50_(µM)>
24

> <Yeast_Active?>
-

> <Pubchem_CID>
3333

> <Description>
L-type calcium channel blocker

$$$$
