
  -ISIS-  08130814242D

 28 29  0  0  0  0  0  0  0  0999 V2000
    7.4917    1.6958    0.0000 C   0  0  0  0  0  0  0  0  0  0  0  0
    6.7417    1.6958    0.0000 C   0  0  0  0  0  0  0  0  0  0  0  0
    5.2417    2.9958    0.0000 C   0  0  0  0  0  0  0  0  0  0  0  0
    6.3667    2.3458    0.0000 O   0  0  0  0  0  0  0  0  0  0  0  0
    5.6167    2.3458    0.0000 C   0  0  0  0  0  0  0  0  0  0  0  0
    7.8667    1.0458    0.0000 C   0  0  0  0  0  0  0  0  0  0  0  0
    7.8667    2.3458    0.0000 C   0  0  0  0  0  0  0  0  0  0  0  0
    1.1167    1.0458    0.0000 N   0  0  0  0  0  0  0  0  0  0  0  0
    4.4917    2.9958    0.0000 C   0  0  0  0  0  0  0  0  0  0  0  0
    5.2417    1.6958    0.0000 C   0  0  0  0  0  0  0  0  0  0  0  0
    2.9917    1.6958    0.0000 N   0  0  0  0  0  0  0  0  0  0  0  0
    4.1167    2.3458    0.0000 C   0  0  0  0  0  0  0  0  0  0  0  0
    1.8667    1.0458    0.0000 C   0  0  0  0  0  0  0  0  0  0  0  0
    7.4917    2.9958    0.0000 Cl  0  0  0  0  0  0  0  0  0  0  0  0
    7.4917    0.3958    0.0000 Cl  0  0  0  0  0  0  0  0  0  0  0  0
    4.4917    1.6958    0.0000 C   0  0  0  0  0  0  0  0  0  0  0  0
    5.6167    3.6458    0.0000 O   0  0  0  0  0  0  0  0  0  0  0  0
    2.2417    1.6958    0.0000 C   0  0  0  0  0  0  0  0  0  0  0  0
    3.3667    2.3458    0.0000 C   0  0  0  0  0  0  0  0  0  0  0  0
    8.9917    1.6958    0.0000 C   0  0  0  0  0  0  0  0  0  0  0  0
    8.6167    1.0458    0.0000 C   0  0  0  0  0  0  0  0  0  0  0  0
    8.6167    2.3458    0.0000 C   0  0  0  0  0  0  0  0  0  0  0  0
    0.7417    0.3958    0.0000 C   0  0  0  0  0  0  0  0  0  0  0  0
    2.2417    0.3958    0.0000 C   0  0  0  0  0  0  0  0  0  0  0  0
    5.2417    4.2792    0.0000 C   0  0  0  0  0  0  0  0  0  0  0  0
    1.1167   -0.2542    0.0000 C   0  0  0  0  0  0  0  0  0  0  0  0
    1.8667   -0.2542    0.0000 C   0  0  0  0  0  0  0  0  0  0  0  0
    9.7417   -0.2542    0.0000 Cl  0  0  0  0  0  0  0  0  0  0  0  0
  2  1  1  0  0  0  0
  3  5  2  0  0  0  0
  4  2  1  0  0  0  0
  5  4  1  0  0  0  0
  6  1  2  0  0  0  0
  7  1  1  0  0  0  0
  8 13  2  0  0  0  0
  9  3  1  0  0  0  0
 10  5  1  0  0  0  0
 11 19  1  0  0  0  0
 12 16  1  0  0  0  0
 13 18  1  0  0  0  0
 14  7  1  0  0  0  0
 15  6  1  0  0  0  0
 16 10  2  0  0  0  0
 17  3  1  0  0  0  0
 18 11  1  0  0  0  0
 19 12  1  0  0  0  0
 20 22  1  0  0  0  0
 21  6  1  0  0  0  0
 22  7  2  0  0  0  0
 23  8  1  0  0  0  0
 24 13  1  0  0  0  0
 25 17  1  0  0  0  0
 26 27  1  0  0  0  0
 27 24  2  0  0  0  0
 20 21  2  0  0  0  0
 12  9  2  0  0  0  0
 26 23  2  0  0  0  0
M  END
> <#>
1492

> <PLATE>
LAT019

> <ROW>
D

> <COL>
8

> <COORD>
D08

> <LATID>
LAT019D08

> <Supplier>
Chembridge

> <Suplier_CAT#>
7978781

> <Name>
Novel

> <Concentration_(mM)>
2.5

> <IC50_(µM)>
inactive

> <Yeast_Active?>
-

> <Pubchem_CID>
979901

$$$$
