
  -ISIS-  08130814242D

 16 18  0  0  0  0  0  0  0  0999 V2000
    0.0000   -1.0542    0.0000 N   0  0  3  0  0  0  0  0  0  0  0  0
    0.0000   -1.8792    0.0000 C   0  0  0  0  0  0  0  0  0  0  0  0
   -0.7125   -0.6375    0.0000 Se  0  0  0  0  0  0  0  0  0  0  0  0
   -1.4208   -1.8792    0.0000 C   0  0  0  0  0  0  0  0  0  0  0  0
   -1.4250   -1.0542    0.0000 C   0  0  0  0  0  0  0  0  0  0  0  0
    0.7167   -0.6417    0.0000 C   0  0  0  0  0  0  0  0  0  0  0  0
    0.5875   -2.4625    0.0000 O   0  0  0  0  0  0  0  0  0  0  0  0
   -2.1375   -2.2917    0.0000 C   0  0  0  0  0  0  0  0  0  0  0  0
   -2.1375   -0.6417    0.0000 C   0  0  0  0  0  0  0  0  0  0  0  0
    0.7167    0.1833    0.0000 C   0  0  0  0  0  0  0  0  0  0  0  0
    1.4292   -1.0542    0.0000 C   0  0  0  0  0  0  0  0  0  0  0  0
   -2.8458   -1.8792    0.0000 C   0  0  0  0  0  0  0  0  0  0  0  0
   -2.8458   -1.0542    0.0000 C   0  0  0  0  0  0  0  0  0  0  0  0
    1.4292    0.5875    0.0000 C   0  0  0  0  0  0  0  0  0  0  0  0
    2.1417   -0.6500    0.0000 C   0  0  0  0  0  0  0  0  0  0  0  0
    2.1417    0.1750    0.0000 C   0  0  0  0  0  0  0  0  0  0  0  0
  2  1  1  0  0  0  0
  3  1  1  0  0  0  0
  4  2  1  0  0  0  0
  5  3  1  0  0  0  0
  6  1  1  0  0  0  0
  7  2  2  0  0  0  0
  8  4  2  0  0  0  0
  9  5  2  0  0  0  0
 10  6  1  0  0  0  0
 11  6  2  0  0  0  0
 12  8  1  0  0  0  0
 13  9  1  0  0  0  0
 14 10  2  0  0  0  0
 15 11  1  0  0  0  0
 16 15  2  0  0  0  0
  4  5  1  0  0  0  0
 16 14  1  0  0  0  0
 12 13  2  0  0  0  0
M  END
> <#>
171

> <PLATE>
LAT003

> <ROW>
C

> <COL>
3

> <COORD>
C03

> <LATID>
LAT003C03

> <Supplier>
Microsource

> <Suplier_CAT#>
01501188

> <Name>
Ebselen

> <Concentration_(mM)>
2.5

> <IC50_(µM)>
66

> <Yeast_Active?>
+

> <Pubchem_CID>
3194

> <Description>
Antioxidant, Lipoxygenase Inhibitor, Inhibits Oxidation Of Ldl

$$$$
