
  -ISIS-  08130814242D

 12 13  0  0  0  0  0  0  0  0999 V2000
    2.3500   -0.6542    0.0000 N   0  3  0  0  0  0  0  0  0  0  0  0
    2.3500   -1.6542    0.0000 C   0  0  0  0  0  0  0  0  0  0  0  0
    3.2042   -2.1250    0.0000 C   0  0  0  0  0  0  0  0  0  0  0  0
    4.9792   -2.1667    0.0000 N   0  0  0  0  0  0  0  0  0  0  0  0
    4.1167   -1.6667    0.0000 N   0  0  0  0  0  0  0  0  0  0  0  0
    3.2042   -3.1292    0.0000 C   0  0  0  0  0  0  0  0  0  0  0  0
    3.2042   -0.1542    0.0000 O   0  5  0  0  0  0  0  0  0  0  0  0
    1.4792   -0.1542    0.0000 O   0  0  0  0  0  0  0  0  0  0  0  0
    4.9792   -3.1667    0.0000 C   0  0  0  0  0  0  0  0  0  0  0  0
    1.4917   -2.1792    0.0000 C   0  0  0  0  0  0  0  0  0  0  0  0
    2.3500   -3.6542    0.0000 C   0  0  0  0  0  0  0  0  0  0  0  0
    1.4917   -3.1792    0.0000 C   0  0  0  0  0  0  0  0  0  0  0  0
  2  1  1  0  0  0  0
  3  2  1  0  0  0  0
  4  5  1  0  0  0  0
  5  3  1  0  0  0  0
  6  3  2  0  0  0  0
  7  1  1  0  0  0  0
  8  1  2  0  0  0  0
  9  6  1  0  0  0  0
 10  2  2  0  0  0  0
 11 12  2  0  0  0  0
 12 10  1  0  0  0  0
 11  6  1  0  0  0  0
  4  9  2  0  0  0  0
M  CHG  2   1   1   7  -1
M  END
> <#>
256

> <PLATE>
LAT004

> <ROW>
H

> <COL>
3

> <COORD>
H03

> <LATID>
LAT004H03

> <Supplier>
Sigma

> <Suplier_CAT#>
N 7778

> <Name>
7-Nitroindazole

> <Concentration_(mM)>
2.5

> <IC50_(µM)>
6.7

> <Yeast_Active?>
-

> <Pubchem_CID>
1893

> <Description>
Selective inhibitor of brain nitric oxide synthase

$$$$
