
  -ISIS-  08130814242D

 11 12  0  0  0  0  0  0  0  0999 V2000
    7.9314   -8.8677    0.0000 N   0  0  0  0  0  0  0  0  0  0  0  0
    6.8488   -9.4927    0.0000 C   0  0  0  0  0  0  0  0  0  0  0  0
    5.7663   -8.8677    0.0000 C   0  0  0  0  0  0  0  0  0  0  0  0
    5.7663   -7.6177    0.0000 C   0  0  0  0  0  0  0  0  0  0  0  0
    6.8488   -6.9927    0.0000 C   0  0  0  0  0  0  0  0  0  0  0  0
    6.8488   -5.7427    0.0000 C   0  0  0  0  0  0  0  0  0  0  0  0
    7.9314   -5.1177    0.0000 C   0  0  0  0  0  0  0  0  0  0  0  0
    9.0139   -5.7427    0.0000 C   0  0  0  0  0  0  0  0  0  0  0  0
    9.0139   -6.9927    0.0000 C   0  0  0  0  0  0  0  0  0  0  0  0
    7.9314   -7.6177    0.0000 C   0  0  0  0  0  0  0  0  0  0  0  0
   10.0964   -7.6177    0.0000 O   0  0  0  0  0  0  0  0  0  0  0  0
  1  2  1  0  0  0  0
  2  3  2  0  0  0  0
  3  4  1  0  0  0  0
  4  5  2  0  0  0  0
  5  6  1  0  0  0  0
  6  7  2  0  0  0  0
  7  8  1  0  0  0  0
  8  9  2  0  0  0  0
  9 10  1  0  0  0  0
  1 10  2  0  0  0  0
  5 10  1  0  0  0  0
  9 11  1  0  0  0  0
M  END
> <#>
298

> <PLATE>
LAT004

> <ROW>
B

> <COL>
9

> <COORD>
B09

> <LATID>
LAT004B09

> <Supplier>
Baker

> <Suplier_CAT#>
2194-4

> <Name>
8-Quinolinol

> <Concentration_(mM)>
2.5

> <IC50_(µM)>
78

> <Yeast_Active?>
+

> <Pubchem_CID>
1923

$$$$
