
  -ISIS-  08130814242D

 21 22  0  0  0  0  0  0  0  0999 V2000
    2.5667   -0.8292    0.0000 C   0  0  0  0  0  0  0  0  0  0  0  0
   -0.7125   -1.6000    0.0000 C   0  0  0  0  0  0  0  0  0  0  0  0
    2.1000   -1.6375    0.0000 C   0  0  0  0  0  0  0  0  0  0  0  0
    3.4792   -0.7542    0.0000 S   0  0  0  0  0  0  0  0  0  0  0  0
   -2.0958   -0.7542    0.0000 N   0  0  0  0  0  0  0  0  0  0  0  0
    1.1667   -1.6375    0.0000 N   0  0  0  0  0  0  0  0  0  0  0  0
   -0.2625   -2.4167    0.0000 C   0  0  0  0  0  0  0  0  0  0  0  0
   -1.6458   -1.5792    0.0000 N   0  0  0  0  0  0  0  0  0  0  0  0
    2.1792    0.0000    0.0000 C   0  0  0  0  0  0  0  0  0  0  0  0
    3.7000    0.1708    0.0000 C   0  0  0  0  0  0  0  0  0  0  0  0
   -0.2333   -0.8042    0.0000 O   0  0  0  0  0  0  0  0  0  0  0  0
    0.6792   -2.4375    0.0000 O   0  0  0  0  0  0  0  0  0  0  0  0
    2.8875    0.6458    0.0000 C   0  0  0  0  0  0  0  0  0  0  0  0
   -3.0333   -0.7500    0.0000 C   0  0  0  0  0  0  0  0  0  0  0  0
   -3.5000    0.0708    0.0000 C   0  0  0  0  0  0  0  0  0  0  0  0
    2.5542   -2.4500    0.0000 C   0  0  0  0  0  0  0  0  0  0  0  0
   -4.4458    0.0708    0.0000 C   0  0  0  0  0  0  0  0  0  0  0  0
   -3.0333    0.8833    0.0000 C   0  0  0  0  0  0  0  0  0  0  0  0
   -3.5000    1.6958    0.0000 C   0  0  0  0  0  0  0  0  0  0  0  0
   -4.9125    0.8833    0.0000 C   0  0  0  0  0  0  0  0  0  0  0  0
   -4.4458    1.6958    0.0000 C   0  0  0  0  0  0  0  0  0  0  0  0
  2  7  1  0  0  0  0
  3  1  1  0  0  0  0
  4  1  1  0  0  0  0
  5  8  1  0  0  0  0
  6  3  2  0  0  0  0
  7 12  1  0  0  0  0
  8  2  1  0  0  0  0
  9  1  2  0  0  0  0
 10  4  1  0  0  0  0
 11  2  2  0  0  0  0
 12  6  1  0  0  0  0
 13  9  1  0  0  0  0
 14  5  2  0  0  0  0
 15 14  1  0  0  0  0
 16  3  1  0  0  0  0
 17 15  2  0  0  0  0
 18 15  1  0  0  0  0
 19 18  2  0  0  0  0
 20 17  1  0  0  0  0
 21 19  1  0  0  0  0
 10 13  2  0  0  0  0
 20 21  2  0  0  0  0
M  END
> <#>
649

> <PLATE>
LAT009

> <ROW>
A

> <COL>
3

> <COORD>
A03

> <LATID>
LAT009A03

> <Supplier>
Chembridge

> <Suplier_CAT#>
5524824

> <Name>
Novel

> <Sec_Name>
149_G09

> <Concentration_(mM)>
2.5

> <IC50_(µM)>
15

> <Yeast_Active?>
-

> <Pubchem_CID>
2849785

$$$$
