
  -ISIS-  08130814242D

 18 19  0  0  0  0  0  0  0  0999 V2000
   -0.9125    1.6208    0.0000 C   0  0  0  0  0  0  0  0  0  0  0  0
   -0.2000    1.2083    0.0000 C   0  0  0  0  0  0  0  0  0  0  0  0
   -0.9125    2.4583    0.0000 C   0  0  0  0  0  0  0  0  0  0  0  0
   -1.6333    2.8625    0.0000 C   0  0  0  0  0  0  0  0  0  0  0  0
   -1.6333    1.2083    0.0000 C   0  0  0  0  0  0  0  0  0  0  0  0
    0.5167    1.6125    0.0000 C   0  0  0  0  0  0  0  0  0  0  0  0
   -0.2083    0.3833    0.0000 O   0  0  0  0  0  0  0  0  0  0  0  0
   -2.3458    2.4583    0.0000 C   0  0  0  0  0  0  0  0  0  0  0  0
    1.2292    1.2000    0.0000 C   0  0  0  0  0  0  0  0  0  0  0  0
   -0.1958    2.8625    0.0000 O   0  0  0  0  0  0  0  0  0  0  0  0
   -2.3458    1.6208    0.0000 C   0  0  0  0  0  0  0  0  0  0  0  0
    2.6542    0.3708    0.0000 C   0  0  0  0  0  0  0  0  0  0  0  0
    3.3625   -0.0417    0.0000 Br  0  0  0  0  0  0  0  0  0  0  0  0
    1.2167    0.3833    0.0000 C   0  0  0  0  0  0  0  0  0  0  0  0
    1.9417    1.6125    0.0000 C   0  0  0  0  0  0  0  0  0  0  0  0
    2.6542    1.1958    0.0000 C   0  0  0  0  0  0  0  0  0  0  0  0
    1.9292   -0.0292    0.0000 C   0  0  0  0  0  0  0  0  0  0  0  0
   -3.0583    2.8625    0.0000 O   0  0  0  0  0  0  0  0  0  0  0  0
  2  1  1  0  0  0  0
  3  1  1  0  0  0  0
  4  3  2  0  0  0  0
  5  1  2  0  0  0  0
  6  2  1  0  0  0  0
  7  2  2  0  0  0  0
  8 11  2  0  0  0  0
  9  6  1  0  0  0  0
 10  3  1  0  0  0  0
 11  5  1  0  0  0  0
 12 16  2  0  0  0  0
 13 12  1  0  0  0  0
 14  9  1  0  0  0  0
 15  9  2  0  0  0  0
 16 15  1  0  0  0  0
 17 14  2  0  0  0  0
 18  8  1  0  0  0  0
  4  8  1  0  0  0  0
 12 17  1  0  0  0  0
M  END
> <#>
1324

> <PLATE>
LAT017

> <ROW>
D

> <COL>
7

> <COORD>
D07

> <LATID>
LAT017D07

> <Supplier>
Chembridge

> <Suplier_CAT#>
7113606

> <Name>
Novel

> <Concentration_(mM)>
2.5

> <IC50_(µM)>
49

> <Yeast_Active?>
+

> <Pubchem_CID>
689031

$$$$
