
  -ISIS-  08130814242D

 22 23  0  0  0  0  0  0  0  0999 V2000
    2.6417    1.3708    0.0000 C   0  0  0  0  0  0  0  0  0  0  0  0
    7.1875    0.2458    0.0000 N   0  0  0  0  0  0  0  0  0  0  0  0
    1.9917    1.7458    0.0000 C   0  0  0  0  0  0  0  0  0  0  0  0
    2.6417    0.6208    0.0000 C   0  0  0  0  0  0  0  0  0  0  0  0
    3.2917    1.7458    0.0000 C   0  0  0  0  0  0  0  0  0  0  0  0
    5.2417    0.6208    0.0000 N   0  0  0  0  0  0  0  0  0  0  0  0
    6.5375    0.6208    0.0000 C   0  0  0  0  0  0  0  0  0  0  0  0
    3.2917    0.2458    0.0000 C   0  0  0  0  0  0  0  0  0  0  0  0
    3.9417    1.3708    0.0000 C   0  0  0  0  0  0  0  0  0  0  0  0
    3.9417    0.6208    0.0000 C   0  0  0  0  0  0  0  0  0  0  0  0
    5.8917    0.2458    0.0000 C   0  0  0  0  0  0  0  0  0  0  0  0
    4.5917    0.2458    0.0000 C   0  0  0  0  0  0  0  0  0  0  0  0
    7.8375    0.6208    0.0000 C   0  0  0  0  0  0  0  0  0  0  0  0
    1.3417    1.3708    0.0000 C   0  0  0  0  0  0  0  0  0  0  0  0
    1.9917    2.4958    0.0000 C   0  0  0  0  0  0  0  0  0  0  0  0
    6.5375    1.3708    0.0000 C   0  0  0  0  0  0  0  0  0  0  0  0
    7.8375    1.3708    0.0000 C   0  0  0  0  0  0  0  0  0  0  0  0
    1.3417    2.8708    0.0000 C   0  0  0  0  0  0  0  0  0  0  0  0
    0.6917    1.7458    0.0000 C   0  0  0  0  0  0  0  0  0  0  0  0
    7.1875    1.7458    0.0000 C   0  0  0  0  0  0  0  0  0  0  0  0
    0.6917    2.4958    0.0000 C   0  0  0  0  0  0  0  0  0  0  0  0
    8.5875    0.2458    0.0000 Cl  0  0  0  0  0  0  0  0  0  0  0  0
  2  7  2  0  0  0  0
  3  1  1  0  0  0  0
  4  1  2  0  0  0  0
  5  1  1  0  0  0  0
  6 12  1  0  0  0  0
  7 11  1  0  0  0  0
  8  4  1  0  0  0  0
  9  5  2  0  0  0  0
 10  9  1  0  0  0  0
 11  6  1  0  0  0  0
 12 10  1  0  0  0  0
 13  2  1  0  0  0  0
 14  3  1  0  0  0  0
 15  3  2  0  0  0  0
 16  7  1  0  0  0  0
 17 20  1  0  0  0  0
 18 15  1  0  0  0  0
 19 14  2  0  0  0  0
 20 16  2  0  0  0  0
 21 18  2  0  0  0  0
  8 10  2  0  0  0  0
 19 21  1  0  0  0  0
 17 13  2  0  0  0  0
M  END
> <#>
1438

> <PLATE>
LAT018

> <ROW>
F

> <COL>
11

> <COORD>
F11

> <LATID>
LAT018F11

> <Supplier>
Chembridge

> <Suplier_CAT#>
9020026

> <Name>
Novel

> <Concentration_(mM)>
2.5

> <IC50_(µM)>
inactive

> <Yeast_Active?>
-

> <Pubchem_CID>
4721318

$$$$
