
  -ISIS-  08130814242D

 22 23  0  0  0  0  0  0  0  0999 V2000
    5.8917    1.2958    0.0000 C   0  0  0  0  0  0  0  0  0  0  0  0
    5.4500    1.9000    0.0000 O   0  0  0  0  0  0  0  0  0  0  0  0
    5.4500    0.6875    0.0000 C   0  0  0  0  0  0  0  0  0  0  0  0
    4.7375    1.6708    0.0000 C   0  0  0  0  0  0  0  0  0  0  0  0
    4.7375    0.9208    0.0000 C   0  0  0  0  0  0  0  0  0  0  0  0
    6.6417    1.2958    0.0000 C   0  0  0  0  0  0  0  0  0  0  0  0
    1.5417    2.3833    0.0000 N   0  0  0  0  0  0  0  0  0  0  0  0
    7.0167    0.6458    0.0000 C   0  0  0  0  0  0  0  0  0  0  0  0
    7.0167    1.9458    0.0000 C   0  0  0  0  0  0  0  0  0  0  0  0
    3.4417    1.8083    0.0000 N   0  0  0  0  0  0  0  0  0  0  0  0
    8.1417    1.2958    0.0000 C   0  0  0  0  0  0  0  0  0  0  0  0
    2.1500    1.9458    0.0000 C   0  0  0  0  0  0  0  0  0  0  0  0
    7.7667    0.6458    0.0000 C   0  0  0  0  0  0  0  0  0  0  0  0
    7.7667    1.9458    0.0000 C   0  0  0  0  0  0  0  0  0  0  0  0
    8.8917    1.2958    0.0000 F   0  0  0  0  0  0  0  0  0  0  0  0
    4.1292    2.1083    0.0000 C   0  0  0  0  0  0  0  0  0  0  0  0
    2.8375    2.2458    0.0000 C   0  0  0  0  0  0  0  0  0  0  0  0
    0.8542    2.0833    0.0000 C   0  0  0  0  0  0  0  0  0  0  0  0
    2.0667    1.1958    0.0000 C   0  0  0  0  0  0  0  0  0  0  0  0
    0.7792    1.3333    0.0000 C   0  0  0  0  0  0  0  0  0  0  0  0
    1.3875    0.8958    0.0000 C   0  0  0  0  0  0  0  0  0  0  0  0
    9.6375    0.6458    0.0000 Cl  0  0  0  0  0  0  0  0  0  0  0  0
  2  1  1  0  0  0  0
  3  1  2  0  0  0  0
  4  2  1  0  0  0  0
  5  3  1  0  0  0  0
  6  1  1  0  0  0  0
  7 12  2  0  0  0  0
  8  6  1  0  0  0  0
  9  6  2  0  0  0  0
 10 16  1  0  0  0  0
 11 14  2  0  0  0  0
 12 17  1  0  0  0  0
 13  8  2  0  0  0  0
 14  9  1  0  0  0  0
 15 11  1  0  0  0  0
 16  4  1  0  0  0  0
 17 10  1  0  0  0  0
 18  7  1  0  0  0  0
 19 12  1  0  0  0  0
 20 21  1  0  0  0  0
 21 19  2  0  0  0  0
  5  4  2  0  0  0  0
 13 11  1  0  0  0  0
 18 20  2  0  0  0  0
M  END
> <#>
1475

> <PLATE>
LAT019

> <ROW>
C

> <COL>
6

> <COORD>
C06

> <LATID>
LAT019C06

> <Supplier>
Chembridge

> <Suplier_CAT#>
9041286

> <Name>
Novel

> <Concentration_(mM)>
2.5

> <IC50_(µM)>
inactive

> <Yeast_Active?>
-

> <Pubchem_CID>
4723523

$$$$
