
  -ISIS-  08130814242D

 22 23  0  0  0  0  0  0  0  0999 V2000
   -1.1250   -7.0042    0.0000 C   0  0  0  0  0  0  0  0  0  0  0  0
   -1.1250   -6.1750    0.0000 C   0  0  0  0  0  0  0  0  0  0  0  0
   -0.4083   -7.4167    0.0000 C   0  0  0  0  0  0  0  0  0  0  0  0
   -1.8458   -5.7625    0.0000 C   0  0  0  0  0  0  0  0  0  0  0  0
   -1.8458   -7.4167    0.0000 C   0  0  0  0  0  0  0  0  0  0  0  0
    3.8750   -5.7542    0.0000 C   0  0  3  0  0  0  0  0  0  0  0  0
    3.1625   -6.1750    0.0000 C   0  0  0  0  0  0  0  0  0  0  0  0
    0.3042   -7.0000    0.0000 C   0  0  0  0  0  0  0  0  0  0  0  0
   -0.4083   -8.2417    0.0000 O   0  0  0  0  0  0  0  0  0  0  0  0
    2.4417   -5.7625    0.0000 C   0  0  0  0  0  0  0  0  0  0  0  0
    3.1625   -7.0000    0.0000 C   0  0  0  0  0  0  0  0  0  0  0  0
    1.0167   -7.4125    0.0000 O   0  0  0  0  0  0  0  0  0  0  0  0
   -2.5583   -6.1750    0.0000 C   0  0  0  0  0  0  0  0  0  0  0  0
    1.7292   -7.0000    0.0000 C   0  0  0  0  0  0  0  0  0  0  0  0
   -0.4125   -5.7542    0.0000 O   0  0  0  0  0  0  0  0  0  0  0  0
   -2.5583   -7.0042    0.0000 C   0  0  0  0  0  0  0  0  0  0  0  0
    1.7292   -6.1792    0.0000 C   0  0  0  0  0  0  0  0  0  0  0  0
    2.4417   -7.4125    0.0000 C   0  0  0  0  0  0  0  0  0  0  0  0
   -3.2708   -5.7667    0.0000 O   0  0  0  0  0  0  0  0  0  0  0  0
    4.5917   -6.1667    0.0000 C   0  0  0  0  0  0  0  0  0  0  0  0
    3.8667   -4.9292    0.0000 C   0  0  0  0  0  0  0  0  0  0  0  0
    4.0917   -6.5542    0.0000 C   0  0  0  0  0  0  0  0  0  0  0  0
  2  1  1  0  0  0  0
  3  1  1  0  0  0  0
  4  2  2  0  0  0  0
  5  1  2  0  0  0  0
  6  7  1  0  0  0  0
  7 11  2  0  0  0  0
  8  3  1  0  0  0  0
  9  3  2  0  0  0  0
 10 17  2  0  0  0  0
 11 18  1  0  0  0  0
 12  8  1  0  0  0  0
 13 16  2  0  0  0  0
 14 12  1  0  0  0  0
 15  2  1  0  0  0  0
 16  5  1  0  0  0  0
 17 14  1  0  0  0  0
 18 14  2  0  0  0  0
 19 13  1  0  0  0  0
 20  6  1  0  0  0  0
 21  6  1  0  0  0  0
 22  6  1  0  0  0  0
  4 13  1  0  0  0  0
 10  7  1  0  0  0  0
M  END
> <#>
1252

> <PLATE>
LAT016

> <ROW>
D

> <COL>
8

> <COORD>
D08

> <LATID>
LAT016D08

> <Supplier>
Chembridge

> <Suplier_CAT#>
6343212

> <Name>
Novel

> <Concentration_(mM)>
2.5

> <IC50_(µM)>
100

> <Yeast_Active?>
+

> <Pubchem_CID>
727685

$$$$
