
  -ISIS-  08130814242D

 22 24  0  0  0  0  0  0  0  0999 V2000
   -0.4958   -0.2000    0.0000 C   0  0  0  0  0  0  0  0  0  0  0  0
   -0.4958    0.3000    0.0000 C   0  0  0  0  0  0  0  0  0  0  0  0
   -0.0708   -0.4500    0.0000 C   0  0  0  0  0  0  0  0  0  0  0  0
   -0.9333    0.5458    0.0000 C   0  0  0  0  0  0  0  0  0  0  0  0
   -0.9333   -0.4500    0.0000 C   0  0  0  0  0  0  0  0  0  0  0  0
    2.1000   -0.2042    0.0000 C   0  0  0  0  0  0  0  0  0  0  0  0
    1.6542   -0.4500    0.0000 C   0  0  0  0  0  0  0  0  0  0  0  0
    0.3542   -0.2042    0.0000 C   0  0  0  0  0  0  0  0  0  0  0  0
   -0.0708   -0.9500    0.0000 O   0  0  0  0  0  0  0  0  0  0  0  0
    2.1000    0.3000    0.0000 C   0  0  0  0  0  0  0  0  0  0  0  0
    0.8000   -0.4667    0.0000 O   0  0  0  0  0  0  0  0  0  0  0  0
   -1.3500    0.3000    0.0000 C   0  0  0  0  0  0  0  0  0  0  0  0
    1.6542    0.5458    0.0000 C   0  0  0  0  0  0  0  0  0  0  0  0
    1.2500   -0.2042    0.0000 C   0  0  0  0  0  0  0  0  0  0  0  0
   -0.0500    0.5625    0.0000 O   0  0  0  0  0  0  0  0  0  0  0  0
   -1.3500   -0.2000    0.0000 C   0  0  0  0  0  0  0  0  0  0  0  0
    1.2500    0.3000    0.0000 C   0  0  0  0  0  0  0  0  0  0  0  0
   -1.7958    0.5625    0.0000 O   0  0  0  0  0  0  0  0  0  0  0  0
    2.5167   -0.4500    0.0000 C   0  0  0  0  0  0  0  0  0  0  0  0
    2.5167    0.5458    0.0000 C   0  0  0  0  0  0  0  0  0  0  0  0
    2.9500   -0.2042    0.0000 C   0  0  0  0  0  0  0  0  0  0  0  0
    2.9500    0.3000    0.0000 C   0  0  0  0  0  0  0  0  0  0  0  0
  2  1  2  0  0  0  0
  3  1  1  0  0  0  0
  4  2  1  0  0  0  0
  5  1  1  0  0  0  0
  6  7  1  0  0  0  0
  7 14  2  0  0  0  0
  8  3  1  0  0  0  0
  9  3  2  0  0  0  0
 10 13  1  0  0  0  0
 11  8  1  0  0  0  0
 12 16  1  0  0  0  0
 13 17  2  0  0  0  0
 14 11  1  0  0  0  0
 15  2  1  0  0  0  0
 16  5  2  0  0  0  0
 17 14  1  0  0  0  0
 18 12  1  0  0  0  0
 19  6  2  0  0  0  0
 20 10  2  0  0  0  0
 21 19  1  0  0  0  0
 22 20  1  0  0  0  0
  4 12  2  0  0  0  0
 10  6  1  0  0  0  0
 22 21  2  0  0  0  0
M  END
> <#>
1286

> <PLATE>
LAT017

> <ROW>
F

> <COL>
2

> <COORD>
F02

> <LATID>
LAT017F02

> <Supplier>
Chembridge

> <Suplier_CAT#>
6686070

> <Name>
Novel

> <Concentration_(mM)>
2.5

> <IC50_(µM)>
8.8

> <Yeast_Active?>
-

> <Pubchem_CID>
727483

$$$$
