
  -ISIS-  08130814242D

 23 24  0  0  0  0  0  0  0  0999 V2000
    1.3167   -1.5542    0.0000 C   0  0  0  0  0  0  0  0  0  0  0  0
    1.3167   -2.3167    0.0000 C   0  0  0  0  0  0  0  0  0  0  0  0
    3.2667   -1.1875    0.0000 C   0  0  0  0  0  0  0  0  0  0  0  0
    4.5667   -1.1875    0.0000 N   0  0  0  0  0  0  0  0  0  0  0  0
    0.6667   -2.6875    0.0000 C   0  0  0  0  0  0  0  0  0  0  0  0
    1.9667   -1.1875    0.0000 O   0  0  0  0  0  0  0  0  0  0  0  0
    3.9167   -1.5542    0.0000 N   0  0  0  0  0  0  0  0  0  0  0  0
    0.6667   -1.1792    0.0000 C   0  0  0  0  0  0  0  0  0  0  0  0
    3.2667   -0.4375    0.0000 O   0  0  0  0  0  0  0  0  0  0  0  0
    6.5167   -0.0667    0.0000 N   0  0  0  0  0  0  0  0  0  0  0  0
    2.6167   -1.5542    0.0000 C   0  0  0  0  0  0  0  0  0  0  0  0
    5.2167   -1.5667    0.0000 C   0  0  0  0  0  0  0  0  0  0  0  0
    5.8667   -1.1875    0.0000 C   0  0  0  0  0  0  0  0  0  0  0  0
    1.9667   -2.6875    0.0000 C   0  0  3  0  0  0  0  0  0  0  0  0
    0.0167   -2.3167    0.0000 C   0  0  0  0  0  0  0  0  0  0  0  0
    0.0167   -1.5542    0.0000 C   0  0  0  0  0  0  0  0  0  0  0  0
    5.8667   -0.4375    0.0000 C   0  0  0  0  0  0  0  0  0  0  0  0
    7.1667   -0.4375    0.0000 C   0  0  0  0  0  0  0  0  0  0  0  0
    6.5167   -1.5667    0.0000 C   0  0  0  0  0  0  0  0  0  0  0  0
    1.9667   -3.4375    0.0000 C   0  0  0  0  0  0  0  0  0  0  0  0
    2.6167   -2.3167    0.0000 C   0  0  0  0  0  0  0  0  0  0  0  0
   -0.6208   -1.1875    0.0000 C   0  0  0  0  0  0  0  0  0  0  0  0
    7.1667   -1.1875    0.0000 C   0  0  0  0  0  0  0  0  0  0  0  0
  2  1  2  0  0  0  0
  3 11  1  0  0  0  0
  4  7  1  0  0  0  0
  5  2  1  0  0  0  0
  6  1  1  0  0  0  0
  7  3  1  0  0  0  0
  8  1  1  0  0  0  0
  9  3  2  0  0  0  0
 10 17  1  0  0  0  0
 11  6  1  0  0  0  0
 12  4  2  0  0  0  0
 13 12  1  0  0  0  0
 14  2  1  0  0  0  0
 15 16  1  0  0  0  0
 16  8  2  0  0  0  0
 17 13  2  0  0  0  0
 18 23  1  0  0  0  0
 19 13  1  0  0  0  0
 20 14  1  0  0  0  0
 21 14  1  0  0  0  0
 22 16  1  0  0  0  0
 23 19  2  0  0  0  0
  5 15  2  0  0  0  0
 10 18  2  0  0  0  0
M  END
> <#>
554

> <PLATE>
LAT007

> <ROW>
B

> <COL>
11

> <COORD>
B11

> <LATID>
LAT007B11

> <Supplier>
Chembridge

> <Suplier_CAT#>
5472086

> <Name>
Chuboxypyr

> <Sec_Name>
135_D10

> <Concentration_(mM)>
2.5

> <IC50_(µM)>
30

> <Yeast_Active?>
-

> <Pubchem_CID>
689371

$$$$
