
  -ISIS-  08130814242D

 28 29  0  0  0  0  0  0  0  0999 V2000
   10.3792   -6.1042    0.0000 N   0  3  0  0  0  0  0  0  0  0  0  0
   10.9542   -6.4375    0.0000 O   0  5  0  0  0  0  0  0  0  0  0  0
   10.3875   -5.4375    0.0000 O   0  0  0  0  0  0  0  0  0  0  0  0
    9.8000   -6.4292    0.0000 O   0  0  0  0  0  0  0  0  0  0  0  0
    5.4042   -6.1875    0.0000 C   0  0  0  0  0  0  0  0  0  0  0  0
    4.9917   -6.9000    0.0000 C   0  0  0  0  0  0  0  0  0  0  0  0
    7.3417   -6.9042    0.0000 N   0  0  3  0  0  0  0  0  0  0  0  0
    8.6167   -7.3250    0.0000 N   0  0  0  0  0  0  0  0  0  0  0  0
    6.2292   -6.1875    0.0000 C   0  0  3  0  0  0  0  0  0  0  0  0
    7.8292   -7.5792    0.0000 C   0  0  0  0  0  0  0  0  0  0  0  0
    4.1625   -6.9000    0.0000 C   0  0  0  0  0  0  0  0  0  0  0  0
    4.9917   -5.4667    0.0000 C   0  0  0  0  0  0  0  0  0  0  0  0
    6.6417   -5.4667    0.0000 S   0  0  0  0  0  0  0  0  0  0  0  0
    6.6417   -6.9000    0.0000 C   0  0  0  0  0  0  0  0  0  0  0  0
    8.6167   -6.5042    0.0000 C   0  0  0  0  0  0  0  0  0  0  0  0
    7.8375   -6.2417    0.0000 C   0  0  0  0  0  0  0  0  0  0  0  0
    3.7500   -6.1875    0.0000 C   0  0  0  0  0  0  0  0  0  0  0  0
    5.4125   -7.6167    0.0000 Cl  0  0  0  0  0  0  0  0  0  0  0  0
    7.4667   -5.4667    0.0000 C   0  0  0  0  0  0  0  0  0  0  0  0
    4.1625   -5.4667    0.0000 C   0  0  0  0  0  0  0  0  0  0  0  0
    8.7125   -3.3292    0.0000 C   0  0  0  0  0  0  0  0  0  0  0  0
    7.8792   -4.7542    0.0000 C   0  0  0  0  0  0  0  0  0  0  0  0
    2.9250   -6.1875    0.0000 Cl  0  0  0  0  0  0  0  0  0  0  0  0
    9.1292   -2.6042    0.0000 Cl  0  0  0  0  0  0  0  0  0  0  0  0
    9.1250   -4.0417    0.0000 C   0  0  0  0  0  0  0  0  0  0  0  0
    7.8792   -3.3292    0.0000 C   0  0  0  0  0  0  0  0  0  0  0  0
    7.4667   -4.0417    0.0000 C   0  0  0  0  0  0  0  0  0  0  0  0
    8.7125   -4.7542    0.0000 C   0  0  0  0  0  0  0  0  0  0  0  0
  3  1  2  0  0  0  0
  4  1  1  0  0  0  0
  2  1  1  0  0  0  0
  6  5  1  0  0  0  0
  7 14  1  0  0  0  0
  8 10  2  0  0  0  0
  9  5  1  0  0  0  0
 10  7  1  0  0  0  0
 11  6  2  0  0  0  0
 12  5  2  0  0  0  0
 13  9  1  0  0  0  0
 14  9  1  0  0  0  0
 15 16  2  0  0  0  0
 16  7  1  0  0  0  0
 17 20  2  0  0  0  0
 18  6  1  0  0  0  0
 19 13  1  0  0  0  0
 20 12  1  0  0  0  0
 21 25  2  0  0  0  0
 22 19  1  0  0  0  0
 23 17  1  0  0  0  0
 24 21  1  0  0  0  0
 25 28  1  0  0  0  0
 26 27  2  0  0  0  0
 27 22  1  0  0  0  0
 28 22  2  0  0  0  0
 17 11  1  0  0  0  0
  8 15  1  0  0  0  0
 21 26  1  0  0  0  0
M  CHG  2   1   1   2  -1
M  END
> <#>
89

> <PLATE>
LAT002

> <ROW>
A

> <COL>
3

> <COORD>
A03

> <LATID>
LAT002A03

> <Supplier>
Microsource

> <Suplier_CAT#>
01501148

> <Name>
Sulconazole Nitrate

> <Concentration_(mM)>
2.5

> <IC50_(µM)>
2.1

> <Yeast_Active?>
+

> <Pubchem_CID>
65495

> <Description>
Antifungal

> <LATCA_Notes>
Phenocopies Brassinazole treatment

$$$$
