
  -ISIS-  08130814242D

 21 22  0  0  0  0  0  0  0  0999 V2000
    1.0167   -9.0542    0.0000 S   0  0  3  0  0  0  0  0  0  0  0  0
    0.2667   -9.0542    0.0000 C   0  0  0  0  0  0  0  0  0  0  0  0
   -0.1000   -9.7000    0.0000 C   0  0  0  0  0  0  0  0  0  0  0  0
   -0.1000  -10.4500    0.0000 N   0  3  0  0  0  0  0  0  0  0  0  0
    1.7667   -9.0542    0.0000 N   0  0  0  0  0  0  0  0  0  0  0  0
    1.0167   -9.8042    0.0000 O   0  0  0  0  0  0  0  0  0  0  0  0
    1.0167   -8.3042    0.0000 O   0  0  0  0  0  0  0  0  0  0  0  0
   -0.7500  -10.8167    0.0000 O   0  5  0  0  0  0  0  0  0  0  0  0
    0.5375  -10.8292    0.0000 O   0  0  0  0  0  0  0  0  0  0  0  0
    3.2667   -7.7667    0.0000 C   0  0  0  0  0  0  0  0  0  0  0  0
    2.1292   -8.4042    0.0000 C   0  0  0  0  0  0  0  0  0  0  0  0
    2.9000   -7.1042    0.0000 C   0  0  0  0  0  0  0  0  0  0  0  0
    2.8875   -8.4167    0.0000 C   0  0  0  0  0  0  0  0  0  0  0  0
    2.1500   -7.1167    0.0000 C   0  0  0  0  0  0  0  0  0  0  0  0
    1.7667   -7.7667    0.0000 C   0  0  0  0  0  0  0  0  0  0  0  0
   -0.1000   -8.4042    0.0000 C   0  0  0  0  0  0  0  0  0  0  0  0
    3.2667   -6.4542    0.0000 Br  0  0  0  0  0  0  0  0  0  0  0  0
   -0.8500   -9.7000    0.0000 C   0  0  0  0  0  0  0  0  0  0  0  0
    4.0167   -7.7667    0.0000 C   0  0  0  0  0  0  0  0  0  0  0  0
   -1.2208   -9.0542    0.0000 C   0  0  0  0  0  0  0  0  0  0  0  0
   -0.8500   -8.4042    0.0000 C   0  0  0  0  0  0  0  0  0  0  0  0
  2  1  1  0  0  0  0
  3  2  1  0  0  0  0
  4  3  1  0  0  0  0
  5  1  1  0  0  0  0
  6  1  2  0  0  0  0
  7  1  2  0  0  0  0
  8  4  1  0  0  0  0
  9  4  2  0  0  0  0
 10 13  1  0  0  0  0
 11  5  1  0  0  0  0
 12 14  1  0  0  0  0
 13 11  2  0  0  0  0
 14 15  2  0  0  0  0
 15 11  1  0  0  0  0
 16  2  2  0  0  0  0
 17 12  1  0  0  0  0
 18  3  2  0  0  0  0
 19 10  1  0  0  0  0
 20 21  2  0  0  0  0
 21 16  1  0  0  0  0
 20 18  1  0  0  0  0
 12 10  2  0  0  0  0
M  CHG  2   4   1   8  -1
M  END
> <#>
1751

> <PLATE>
LAT022

> <ROW>
G

> <COL>
10

> <COORD>
G10

> <LATID>
LAT022G10

> <Supplier>
Chembridge

> <Suplier_CAT#>
5532467

> <Name>
Novel

> <Sec_Name>
154_C06

> <Concentration_(mM)>
2.5

> <IC50_(µM)>
23

> <Yeast_Active?>
-

> <Pubchem_CID>
1087334

$$$$
