
  -ISIS-  08130814242D

 22 24  0  0  0  0  0  0  0  0999 V2000
   -1.9708   -0.1792    0.0000 S   0  0  3  0  0  0  0  0  0  0  0  0
   -3.0625   -0.4542    0.0000 C   0  0  0  0  0  0  0  0  0  0  0  0
   -3.8458    0.3458    0.0000 C   0  0  0  0  0  0  0  0  0  0  0  0
   -0.8625    0.1000    0.0000 N   0  0  0  0  0  0  0  0  0  0  0  0
   -4.9208    0.0458    0.0000 C   0  0  0  0  0  0  0  0  0  0  0  0
   -3.3458   -1.5167    0.0000 C   0  0  0  0  0  0  0  0  0  0  0  0
   -1.6833   -1.2542    0.0000 O   0  0  0  0  0  0  0  0  0  0  0  0
   -2.2458    0.9208    0.0000 O   0  0  0  0  0  0  0  0  0  0  0  0
   -5.2208   -1.0167    0.0000 C   0  0  0  0  0  0  0  0  0  0  0  0
   -4.4208   -1.8167    0.0000 C   0  0  0  0  0  0  0  0  0  0  0  0
   -0.0833   -0.7000    0.0000 C   0  0  0  0  0  0  0  0  0  0  0  0
   -6.2917   -1.3000    0.0000 Br  0  0  0  0  0  0  0  0  0  0  0  0
    1.0000   -0.4292    0.0000 C   0  0  0  0  0  0  0  0  0  0  0  0
   -3.5625    1.4208    0.0000 C   0  0  0  0  0  0  0  0  0  0  0  0
   -5.7208    0.8458    0.0000 C   0  0  0  0  0  0  0  0  0  0  0  0
    1.3000    0.6458    0.0000 C   0  0  0  0  0  0  0  0  0  0  0  0
    1.7792   -1.2292    0.0000 C   0  0  0  0  0  0  0  0  0  0  0  0
   -4.3458    2.2083    0.0000 C   0  0  0  0  0  0  0  0  0  0  0  0
   -5.4208    1.9208    0.0000 C   0  0  0  0  0  0  0  0  0  0  0  0
    2.3792    0.9208    0.0000 C   0  0  0  0  0  0  0  0  0  0  0  0
    2.8792   -0.9375    0.0000 C   0  0  0  0  0  0  0  0  0  0  0  0
    3.1792    0.1333    0.0000 C   0  0  0  0  0  0  0  0  0  0  0  0
  2  1  1  0  0  0  0
  3  2  2  0  0  0  0
  4  1  1  0  0  0  0
  5  3  1  0  0  0  0
  6  2  1  0  0  0  0
  7  1  2  0  0  0  0
  8  1  2  0  0  0  0
  9 10  1  0  0  0  0
 10  6  2  0  0  0  0
 11  4  1  0  0  0  0
 12  9  1  0  0  0  0
 13 11  1  0  0  0  0
 14  3  1  0  0  0  0
 15  5  1  0  0  0  0
 16 13  1  0  0  0  0
 17 13  2  0  0  0  0
 18 14  2  0  0  0  0
 19 18  1  0  0  0  0
 20 16  2  0  0  0  0
 21 17  1  0  0  0  0
 22 21  2  0  0  0  0
  5  9  2  0  0  0  0
 19 15  2  0  0  0  0
 20 22  1  0  0  0  0
M  END
> <#>
1940

> <PLATE>
LAT025

> <ROW>
D

> <COL>
4

> <COORD>
D04

> <LATID>
LAT025D04

> <Supplier>
Chembridge

> <Suplier_CAT#>
5789462

> <Name>
Apyrabactin

> <Concentration_(mM)>
2.5

> <IC50_(µM)>
inactive

> <Yeast_Active?>
-

> <Pubchem_CID>
NULL

$$$$
