
  -ISIS-  08130814242D

 19 20  0  0  0  0  0  0  0  0999 V2000
   -0.0125    0.0625    0.0000 C   0  0  0  0  0  0  0  0  0  0  0  0
   -2.7333    0.0625    0.0000 C   0  0  0  0  0  0  0  0  0  0  0  0
   -1.4208    0.8708    0.0000 N   0  0  0  0  0  0  0  0  0  0  0  0
   -3.1625   -0.6667    0.0000 S   0  0  0  0  0  0  0  0  0  0  0  0
   -1.8958    0.0625    0.0000 C   0  0  0  0  0  0  0  0  0  0  0  0
   -0.4833    0.8708    0.0000 N   0  0  0  0  0  0  0  0  0  0  0  0
   -4.0208   -0.6542    0.0000 C   0  0  0  0  0  0  0  0  0  0  0  0
   -3.1625    0.7958    0.0000 C   0  0  0  0  0  0  0  0  0  0  0  0
   -0.4833   -0.7500    0.0000 O   0  0  0  0  0  0  0  0  0  0  0  0
   -4.4458    0.0625    0.0000 C   0  0  0  0  0  0  0  0  0  0  0  0
    0.9167    0.0625    0.0000 C   0  0  0  0  0  0  0  0  0  0  0  0
    1.3792   -0.7500    0.0000 O   0  0  0  0  0  0  0  0  0  0  0  0
    2.3042   -0.7500    0.0000 C   0  0  0  0  0  0  0  0  0  0  0  0
    4.1875   -0.7500    0.0000 C   0  0  0  0  0  0  0  0  0  0  0  0
    5.1167   -0.7500    0.0000 Cl  0  0  0  0  0  0  0  0  0  0  0  0
    2.7792    0.0625    0.0000 C   0  0  0  0  0  0  0  0  0  0  0  0
    2.7792   -1.5542    0.0000 C   0  0  0  0  0  0  0  0  0  0  0  0
    3.7167    0.0625    0.0000 C   0  0  0  0  0  0  0  0  0  0  0  0
    3.7167   -1.5542    0.0000 C   0  0  0  0  0  0  0  0  0  0  0  0
  2  5  1  0  0  0  0
  3  6  1  0  0  0  0
  4  2  1  0  0  0  0
  5  3  2  0  0  0  0
  6  1  1  0  0  0  0
  7  4  1  0  0  0  0
  8  2  2  0  0  0  0
  9  1  2  0  0  0  0
 10  8  1  0  0  0  0
 11  1  1  0  0  0  0
 12 11  1  0  0  0  0
 13 12  1  0  0  0  0
 14 19  2  0  0  0  0
 15 14  1  0  0  0  0
 16 13  1  0  0  0  0
 17 13  2  0  0  0  0
 18 16  2  0  0  0  0
 19 17  1  0  0  0  0
 14 18  1  0  0  0  0
  7 10  2  0  0  0  0
M  END
> <#>
627

> <PLATE>
LAT008

> <ROW>
C

> <COL>
10

> <COORD>
C10

> <LATID>
LAT008C10

> <Supplier>
Chembridge

> <Suplier_CAT#>
5539186

> <Name>
Novel

> <Sec_Name>
156_E08

> <Concentration_(mM)>
2.5

> <IC50_(µM)>
0.19

> <Yeast_Active?>
-

> <Pubchem_CID>
768305

$$$$
