
  -ISIS-  08130814242D

 22 24  0  0  0  0  0  0  0  0999 V2000
    7.3875    2.1625    0.0000 C   0  0  0  0  0  0  0  0  0  0  0  0
    6.1292    2.9000    0.0000 C   0  0  0  0  0  0  0  0  0  0  0  0
    8.6000    2.8750    0.0000 C   0  0  0  0  0  0  0  0  0  0  0  0
    4.8875    2.1750    0.0000 C   0  0  0  0  0  0  0  0  0  0  0  0
    7.3792    0.7208    0.0000 C   0  0  0  0  0  0  0  0  0  0  0  0
    9.8250    2.1708    0.0000 C   0  0  0  0  0  0  0  0  0  0  0  0
    6.1167    0.0000    0.0000 O   0  0  0  0  0  0  0  0  0  0  0  0
    4.8917    0.7708    0.0000 C   0  0  0  0  0  0  0  0  0  0  0  0
    3.6625    2.8833    0.0000 C   0  0  0  0  0  0  0  0  0  0  0  0
    6.1292    4.0917    0.0000 O   0  0  0  0  0  0  0  0  0  0  0  0
    8.6250    4.0917    0.0000 O   0  0  0  0  0  0  0  0  0  0  0  0
   11.0375    2.8625    0.0000 C   0  0  0  0  0  0  0  0  0  0  0  0
    3.6667    0.0583    0.0000 C   0  0  0  0  0  0  0  0  0  0  0  0
    2.4417    2.1750    0.0000 C   0  0  0  0  0  0  0  0  0  0  0  0
   11.0292    4.2667    0.0000 Cl  0  0  0  0  0  0  0  0  0  0  0  0
    2.4417    0.7625    0.0000 C   0  0  0  0  0  0  0  0  0  0  0  0
    9.8125    0.7625    0.0000 C   0  0  0  0  0  0  0  0  0  0  0  0
    1.2167    2.8958    0.0000 O   0  0  0  0  0  0  0  0  0  0  0  0
   12.2500    2.1625    0.0000 C   0  0  0  0  0  0  0  0  0  0  0  0
    0.0000    2.1875    0.0000 C   0  0  0  0  0  0  0  0  0  0  0  0
   11.0167    0.0583    0.0000 C   0  0  0  0  0  0  0  0  0  0  0  0
   12.2417    0.7500    0.0000 C   0  0  0  0  0  0  0  0  0  0  0  0
  2  1  1  0  0  0  0
  3  1  1  0  0  0  0
  4  2  1  0  0  0  0
  5  1  2  0  0  0  0
  6  3  1  0  0  0  0
  7  5  1  0  0  0  0
  8  7  1  0  0  0  0
  9  4  1  0  0  0  0
 10  2  2  0  0  0  0
 11  3  2  0  0  0  0
 12  6  1  0  0  0  0
 13  8  1  0  0  0  0
 14  9  2  0  0  0  0
 15 12  1  0  0  0  0
 16 13  2  0  0  0  0
 17  6  2  0  0  0  0
 18 14  1  0  0  0  0
 19 12  2  0  0  0  0
 20 18  1  0  0  0  0
 21 17  1  0  0  0  0
 22 21  2  0  0  0  0
  8  4  2  0  0  0  0
 16 14  1  0  0  0  0
 22 19  1  0  0  0  0
M  END
> <#>
1900

> <PLATE>
LAT024

> <ROW>
D

> <COL>
9

> <COORD>
D09

> <LATID>
LAT024D09

> <Supplier>
Chembridge

> <Suplier_CAT#>
5963848

> <Name>
S001 B07

> <Concentration_(mM)>
2.5

> <IC50_(µM)>
5

> <Yeast_Active?>
+

> <Pubchem_CID>
775958

$$$$
