
  -ISIS-  08130814242D

 22 24  0  0  0  0  0  0  0  0999 V2000
    3.9652   -4.3541    0.0000 C   0  0  0  0  0  0  0  0  0  0  0  0
    3.9641   -5.1815    0.0000 C   0  0  0  0  0  0  0  0  0  0  0  0
    4.6789   -5.5944    0.0000 C   0  0  0  0  0  0  0  0  0  0  0  0
    4.6771   -3.9414    0.0000 C   0  0  0  0  0  0  0  0  0  0  0  0
    5.3925   -4.3505    0.0000 C   0  0  0  0  0  0  0  0  0  0  0  0
    5.3932   -5.1773    0.0000 C   0  0  0  0  0  0  0  0  0  0  0  0
    6.1085   -5.5883    0.0000 N   0  0  0  0  0  0  0  0  0  0  0  0
    6.8236   -5.1735    0.0000 C   0  0  0  0  0  0  0  0  0  0  0  0
    6.8188   -4.3436    0.0000 N   0  0  0  0  0  0  0  0  0  0  0  0
    6.1029   -3.9363    0.0000 C   0  0  0  0  0  0  0  0  0  0  0  0
    6.0985   -3.1114    0.0000 N   0  0  0  0  0  0  0  0  0  0  0  0
    6.8108   -2.6951    0.0000 C   0  0  0  0  0  0  0  0  0  0  0  0
    7.5228   -3.1072    0.0000 C   0  0  0  0  0  0  0  0  0  0  0  0
    8.2346   -2.6916    0.0000 C   0  0  0  0  0  0  0  0  0  0  0  0
    8.2307   -1.8657    0.0000 C   0  0  0  0  0  0  0  0  0  0  0  0
    7.5090   -1.4572    0.0000 C   0  0  0  0  0  0  0  0  0  0  0  0
    6.8002   -1.8752    0.0000 C   0  0  0  0  0  0  0  0  0  0  0  0
    8.9511   -3.1007    0.0000 Cl  0  0  0  0  0  0  0  0  0  0  0  0
    3.2507   -3.9418    0.0000 O   0  0  0  0  0  0  0  0  0  0  0  0
    3.2493   -5.5934    0.0000 O   0  0  0  0  0  0  0  0  0  0  0  0
    2.4250   -3.9375    0.0000 C   0  0  0  0  0  0  0  0  0  0  0  0
    2.4208   -5.5875    0.0000 C   0  0  0  0  0  0  0  0  0  0  0  0
 10 11  1  0  0  0  0
  2  3  1  0  0  0  0
 11 12  1  0  0  0  0
  5  6  1  0  0  0  0
 12 13  2  0  0  0  0
  3  6  2  0  0  0  0
 13 14  1  0  0  0  0
  6  7  1  0  0  0  0
 14 15  2  0  0  0  0
  1  2  2  0  0  0  0
 15 16  1  0  0  0  0
  7  8  2  0  0  0  0
 16 17  2  0  0  0  0
 17 12  1  0  0  0  0
  5  4  2  0  0  0  0
 14 18  1  0  0  0  0
  8  9  1  0  0  0  0
  1 19  1  0  0  0  0
  4  1  1  0  0  0  0
  2 20  1  0  0  0  0
  9 10  2  0  0  0  0
 19 21  1  0  0  0  0
 10  5  1  0  0  0  0
 20 22  1  0  0  0  0
M  END
> <#>
282

> <PLATE>
LAT004

> <ROW>
B

> <COL>
7

> <COORD>
B07

> <LATID>
LAT004B07

> <Supplier>
Sigma

> <Suplier_CAT#>
T 4182

> <Name>
Tyrphostin AG 1478

> <Concentration_(mM)>
2.5

> <IC50_(µM)>
18

> <Yeast_Active?>
-

> <Pubchem_CID>
2051

> <Description>
Selective inhibitor of epidermal growth factor receptor (EGFR) protein

$$$$
