
  -ISIS-  08130814242D

 20 21  0  0  0  0  0  0  0  0999 V2000
    4.9584   -4.1500    0.0000 C   0  0  3  0  0  0  0  0  0  0  0  0
    4.5834   -4.8000    0.0000 C   0  0  3  0  0  0  0  0  0  0  0  0
    3.8334   -4.8000    0.0000 C   0  0  0  0  0  0  0  0  0  0  0  0
    5.7084   -4.1500    0.0000 C   0  0  0  0  0  0  0  0  0  0  0  0
    3.4584   -5.4500    0.0000 C   0  0  0  0  0  0  0  0  0  0  0  0
    6.0834   -3.5000    0.0000 C   0  0  0  0  0  0  0  0  0  0  0  0
    3.4584   -4.1500    0.0000 C   0  0  0  0  0  0  0  0  0  0  0  0
    6.0834   -4.7958    0.0000 C   0  0  0  0  0  0  0  0  0  0  0  0
    7.2084   -4.1500    0.0000 C   0  0  0  0  0  0  0  0  0  0  0  0
    2.3334   -4.8000    0.0000 C   0  0  0  0  0  0  0  0  0  0  0  0
    6.8334   -4.7958    0.0000 C   0  0  0  0  0  0  0  0  0  0  0  0
    2.7084   -5.4500    0.0000 C   0  0  0  0  0  0  0  0  0  0  0  0
    2.7084   -4.1500    0.0000 C   0  0  0  0  0  0  0  0  0  0  0  0
    6.8334   -3.5000    0.0000 C   0  0  0  0  0  0  0  0  0  0  0  0
    7.9584   -4.1500    0.0000 O   0  0  0  0  0  0  0  0  0  0  0  0
    1.5834   -4.8000    0.0000 O   0  0  0  0  0  0  0  0  0  0  0  0
    4.9584   -5.4458    0.0000 C   0  0  0  0  0  0  0  0  0  0  0  0
    4.5834   -3.5000    0.0000 C   0  0  0  0  0  0  0  0  0  0  0  0
    5.7084   -5.4458    0.0000 C   0  0  0  0  0  0  0  0  0  0  0  0
    4.9584   -2.8500    0.0000 C   0  0  0  0  0  0  0  0  0  0  0  0
  2  1  1  0  0  0  0
  3  2  1  0  0  0  0
  4  1  1  0  0  0  0
  5  3  1  0  0  0  0
  6  4  2  0  0  0  0
  7  3  2  0  0  0  0
  8  4  1  0  0  0  0
  9 11  1  0  0  0  0
 10 13  2  0  0  0  0
 11  8  2  0  0  0  0
 12  5  2  0  0  0  0
 13  7  1  0  0  0  0
 14  6  1  0  0  0  0
 15  9  1  0  0  0  0
 16 10  1  0  0  0  0
 17  2  1  0  0  0  0
 18  1  1  0  0  0  0
 19 17  1  0  0  0  0
 20 18  1  0  0  0  0
 14  9  2  0  0  0  0
 12 10  1  0  0  0  0
M  END
> <#>
137

> <PLATE>
LAT002

> <ROW>
A

> <COL>
9

> <COORD>
A09

> <LATID>
LAT002A09

> <Supplier>
Microsource

> <Suplier_CAT#>
1500632

> <Name>
Hexestrol

> <Concentration_(mM)>
2.5

> <IC50_(µM)>
19

> <Yeast_Active?>
-

> <Pubchem_CID>
3606

$$$$
