
  -ISIS-  08130814242D

 24 27  0  0  0  0  0  0  0  0999 V2000
    0.1750   -3.1167    0.0000 C   0  0  0  0  0  0  0  0  0  0  0  0
    0.0125   -3.8792    0.0000 N   0  0  0  0  0  0  0  0  0  0  0  0
   -0.5083   -2.7250    0.0000 C   0  0  0  0  0  0  0  0  0  0  0  0
   -3.0958   -3.7167    0.0000 N   0  3  0  0  0  0  0  0  0  0  0  0
   -1.0833   -3.2500    0.0000 C   0  0  0  0  0  0  0  0  0  0  0  0
   -0.7708   -3.9667    0.0000 C   0  0  0  0  0  0  0  0  0  0  0  0
   -1.8583   -3.1667    0.0000 C   0  0  0  0  0  0  0  0  0  0  0  0
   -2.3208   -3.7917    0.0000 C   0  0  0  0  0  0  0  0  0  0  0  0
    0.8500   -2.7167    0.0000 C   0  0  3  0  0  0  0  0  0  0  0  0
    1.5292   -3.1125    0.0000 N   0  0  0  0  0  0  0  0  0  0  0  0
   -3.4125   -3.0042    0.0000 O   0  5  0  0  0  0  0  0  0  0  0  0
   -3.5583   -4.3500    0.0000 O   0  0  0  0  0  0  0  0  0  0  0  0
   -1.2250   -4.5917    0.0000 C   0  0  0  0  0  0  0  0  0  0  0  0
   -2.0000   -4.5042    0.0000 C   0  0  0  0  0  0  0  0  0  0  0  0
    2.2417   -2.7000    0.0000 C   0  0  3  0  0  0  0  0  0  0  0  0
   -0.5083   -1.9375    0.0000 C   0  0  0  0  0  0  0  0  0  0  0  0
    2.2417   -1.9167    0.0000 C   0  0  0  0  0  0  0  0  0  0  0  0
    2.9250   -3.1000    0.0000 C   0  0  0  0  0  0  0  0  0  0  0  0
    2.9250   -1.5167    0.0000 C   0  0  0  0  0  0  0  0  0  0  0  0
    3.6042   -2.7042    0.0000 C   0  0  0  0  0  0  0  0  0  0  0  0
    0.8500   -1.9375    0.0000 C   0  0  0  0  0  0  0  0  0  0  0  0
    3.6042   -1.9167    0.0000 C   0  0  3  0  0  0  0  0  0  0  0  0
    0.1750   -1.5417    0.0000 C   0  0  0  0  0  0  0  0  0  0  0  0
    4.2792   -1.5167    0.0000 C   0  0  0  0  0  0  0  0  0  0  0  0
  2  1  1  0  0  0  0
  3  1  2  0  0  0  0
  4  8  1  0  0  0  0
  5  3  1  0  0  0  0
  6  2  1  0  0  0  0
  7  5  1  0  0  0  0
  8  7  2  0  0  0  0
  9  1  1  0  0  0  0
 10  9  1  0  0  0  0
 11  4  1  0  0  0  0
 12  4  2  0  0  0  0
 13  6  1  0  0  0  0
 14 13  2  0  0  0  0
 15 10  1  0  0  0  0
 16  3  1  0  0  0  0
 17 15  1  0  0  0  0
 18 15  1  0  0  0  0
 19 17  1  0  0  0  0
 20 18  1  0  0  0  0
 21  9  1  0  0  0  0
 22 20  1  0  0  0  0
 23 21  1  0  0  0  0
 24 22  1  0  0  0  0
  5  6  2  0  0  0  0
 23 16  1  0  0  0  0
 14  8  1  0  0  0  0
 22 19  1  0  0  0  0
M  CHG  2   4   1  11  -1
M  END
> <#>
1019

> <PLATE>
LAT013

> <ROW>
C

> <COL>
9

> <COORD>
C09

> <LATID>
LAT013C09

> <Supplier>
Chembridge

> <Suplier_CAT#>
5781447

> <Name>
Novel

> <Sec_Name>
245_A03

> <Concentration_(mM)>
2.5

> <IC50_(µM)>
33

> <Yeast_Active?>
-

> <Pubchem_CID>
NULL

$$$$
