
  -ISIS-  08130814242D

 35 37  0  0  0  0  0  0  0  0999 V2000
    1.1777   -3.4791    0.0000 C   0  0  0  0  0  0  0  0  0  0  0  0
    1.1766   -4.3065    0.0000 C   0  0  0  0  0  0  0  0  0  0  0  0
    1.8914   -4.7194    0.0000 C   0  0  0  0  0  0  0  0  0  0  0  0
    1.8896   -3.0664    0.0000 C   0  0  0  0  0  0  0  0  0  0  0  0
    2.6050   -3.4755    0.0000 C   0  0  0  0  0  0  0  0  0  0  0  0
    2.6084   -4.3086    0.0000 C   0  0  0  0  0  0  0  0  0  0  0  0
    3.3276   -4.7199    0.0000 C   0  0  0  0  0  0  0  0  0  0  0  0
    3.3207   -3.0537    0.0000 C   0  0  1  0  0  0  0  0  0  0  0  0
    4.0445   -3.4696    0.0000 C   0  0  2  0  0  0  0  0  0  0  0  0
    4.0456   -4.3043    0.0000 C   0  0  0  0  0  0  0  0  0  0  0  0
    4.7651   -4.7185    0.0000 C   0  0  0  0  0  0  0  0  0  0  0  0
    4.7629   -3.0490    0.0000 C   0  0  1  0  0  0  0  0  0  0  0  0
    5.4870   -3.4677    0.0000 C   0  0  2  0  0  0  0  0  0  0  0  0
    5.4874   -4.3044    0.0000 C   0  0  1  0  0  0  0  0  0  0  0  0
    6.2082   -4.7199    0.0000 C   0  0  0  0  0  0  0  0  0  0  0  0
    6.9331   -4.3036    0.0000 C   0  0  0  0  0  0  0  0  0  0  0  0
    6.9326   -3.4670    0.0000 C   0  0  0  0  0  0  0  0  0  0  0  0
    6.2073   -3.0467    0.0000 C   0  0  1  0  0  0  0  0  0  0  0  0
    1.8899   -5.5444    0.0000 O   0  0  0  0  0  0  0  0  0  0  0  0
    3.0495   -2.1662    0.0000 C   0  0  0  0  0  0  0  0  0  0  0  0
    3.3297   -5.5449    0.0000 O   0  0  0  0  0  0  0  0  0  0  0  0
    4.0375   -2.6417    0.0000 H   0  0  0  0  0  0  0  0  0  0  0  0
    4.7643   -5.5435    0.0000 O   0  0  0  0  0  0  0  0  0  0  0  0
    5.4792   -2.6417    0.0000 H   0  0  0  0  0  0  0  0  0  0  0  0
    5.4792   -5.1292    0.0000 O   0  0  0  0  0  0  0  0  0  0  0  0
    6.2075   -5.5449    0.0000 O   0  0  0  0  0  0  0  0  0  0  0  0
    7.6472   -4.7167    0.0000 C   0  0  0  0  0  0  0  0  0  0  0  0
    7.6473   -3.0548    0.0000 O   0  0  0  0  0  0  0  0  0  0  0  0
    6.2057   -2.2217    0.0000 N   0  0  3  0  0  0  0  0  0  0  0  0
    7.6495   -5.5376    0.0000 N   0  0  0  0  0  0  0  0  0  0  0  0
    8.3650   -4.3007    0.0000 O   0  0  0  0  0  0  0  0  0  0  0  0
    5.7875   -1.5042    0.0000 C   0  0  0  0  0  0  0  0  0  0  0  0
    7.0019   -2.0058    0.0000 C   0  0  0  0  0  0  0  0  0  0  0  0
    4.7607   -2.2240    0.0000 O   0  0  0  0  0  0  0  0  0  0  0  0
   10.1958   -4.3500    0.0000 Cl  0  0  0  0  0  0  0  0  0  0  0  0
  6  7  1  0  0  0  0
 13 18  1  0  0  0  0
 14 15  1  0  0  0  0
 15 16  1  0  0  0  0
 16 17  2  0  0  0  0
 17 18  1  0  0  0  0
  7 10  1  0  0  0  0
  3 19  1  0  0  0  0
  9  8  1  0  0  0  0
  8 20  1  6  0  0  0
  9 10  1  0  0  0  0
  7 21  2  0  0  0  0
  9 22  1  6  0  0  0
  5  4  2  0  0  0  0
 11 23  1  0  0  0  0
  4  1  1  0  0  0  0
 13 24  1  6  0  0  0
  5  6  1  0  0  0  0
 14 25  1  6  0  0  0
  9 12  1  0  0  0  0
 15 26  2  0  0  0  0
 10 11  2  0  0  0  0
 16 27  1  0  0  0  0
 11 14  1  0  0  0  0
 17 28  1  0  0  0  0
 13 12  1  0  0  0  0
 18 29  1  6  0  0  0
 13 14  1  0  0  0  0
  1  2  2  0  0  0  0
 27 30  1  0  0  0  0
 27 31  2  0  0  0  0
 29 32  1  0  0  0  0
  2  3  1  0  0  0  0
 29 33  1  0  0  0  0
  3  6  2  0  0  0  0
 12 34  1  6  0  0  0
  5  8  1  0  0  0  0
M  END
> <#>
226

> <PLATE>
LAT003

> <ROW>
B

> <COL>
10

> <COORD>
B10

> <LATID>
LAT003B10

> <Supplier>
Sigma

> <Suplier_CAT#>
D 9891

> <Name>
Doxycycline Hydrochloride

> <Concentration_(mM)>
2.5

> <IC50_(µM)>
12

> <Yeast_Active?>
-

> <Pubchem_CID>
5281011

> <Description>
 6-deoxytetracycline antibiotic; interferes with protein synthesis

$$$$
