
  -ISIS-  08130814242D

 17 18  0  0  0  0  0  0  0  0999 V2000
    0.3500    2.9208    0.0000 C   0  0  0  0  0  0  0  0  0  0  0  0
    1.0042    3.3125    0.0000 C   0  0  0  0  0  0  0  0  0  0  0  0
    0.3500    2.1458    0.0000 C   0  0  0  0  0  0  0  0  0  0  0  0
    1.6792    2.9208    0.0000 C   0  0  0  0  0  0  0  0  0  0  0  0
   -0.3000    1.7458    0.0000 C   0  0  0  0  0  0  0  0  0  0  0  0
   -1.2708    1.8125    0.0000 N   0  0  0  0  0  0  0  0  0  0  0  0
    1.0042    1.7833    0.0000 C   0  0  0  0  0  0  0  0  0  0  0  0
    1.6792    2.1458    0.0000 C   0  0  0  0  0  0  0  0  0  0  0  0
    2.3500    3.3125    0.0000 O   0  0  0  0  0  0  0  0  0  0  0  0
    1.0042    4.0792    0.0000 C   0  0  0  0  0  0  0  0  0  0  0  0
   -0.3333    3.3125    0.0000 C   0  0  0  0  0  0  0  0  0  0  0  0
   -1.9500    2.2083    0.0000 C   0  0  3  0  0  0  0  0  0  0  0  0
    3.0042    2.9458    0.0000 C   0  0  0  0  0  0  0  0  0  0  0  0
   -2.6333    1.8125    0.0000 C   0  0  0  0  0  0  0  0  0  0  0  0
   -1.9500    2.9833    0.0000 C   0  0  0  0  0  0  0  0  0  0  0  0
   -0.3333    4.0667    0.0000 C   0  0  0  0  0  0  0  0  0  0  0  0
    0.3500    4.4542    0.0000 C   0  0  0  0  0  0  0  0  0  0  0  0
  2  1  1  0  0  0  0
  3  1  2  0  0  0  0
  4  2  2  0  0  0  0
  5  3  1  0  0  0  0
  6  5  1  0  0  0  0
  7  3  1  0  0  0  0
  8  7  2  0  0  0  0
  9  4  1  0  0  0  0
 10  2  1  0  0  0  0
 11  1  1  0  0  0  0
 12  6  1  0  0  0  0
 13  9  1  0  0  0  0
 14 12  1  0  0  0  0
 15 12  1  0  0  0  0
 16 11  2  0  0  0  0
 17 16  1  0  0  0  0
 10 17  2  0  0  0  0
  8  4  1  0  0  0  0
M  END
> <#>
1999

> <PLATE>
LAT025

> <ROW>
G

> <COL>
11

> <COORD>
G11

> <LATID>
LAT025G11

> <Supplier>
Chembridge

> <Suplier_CAT#>
5569371

> <Sec_Name>
175_F04

> <Concentration_(mM)>
2.5

> <IC50_(µM)>
inactive

> <Yeast_Active?>
-

> <Pubchem_CID>
867534

$$$$
