
  -ISIS-  08130814242D

 36 39  0  0  0  0  0  0  0  0999 V2000
    3.1167   -0.6875    0.0000 C   0  0  2  0  0  0  0  0  0  0  0  0
    1.6875   -1.5167    0.0000 C   0  0  3  0  0  0  0  0  0  0  0  0
    3.9000   -0.4292    0.0000 C   0  0  2  0  0  0  0  0  0  0  0  0
    0.9750   -1.9292    0.0000 C   0  0  2  0  0  0  0  0  0  0  0  0
    3.1167   -1.5167    0.0000 C   0  0  3  0  0  0  0  0  0  0  0  0
    2.4000   -1.9292    0.0000 C   0  0  3  0  0  0  0  0  0  0  0  0
    0.9750   -2.7542    0.0000 C   0  0  0  0  0  0  0  0  0  0  0  0
    1.6875   -0.6875    0.0000 C   0  0  2  0  0  0  0  0  0  0  0  0
    2.4000   -0.2750    0.0000 C   0  0  0  0  0  0  0  0  0  0  0  0
    4.3875   -1.1000    0.0000 C   0  0  2  0  0  0  0  0  0  0  0  0
    0.2625   -1.5167    0.0000 C   0  0  0  0  0  0  0  0  0  0  0  0
    3.9000   -1.7667    0.0000 C   0  0  0  0  0  0  0  0  0  0  0  0
    3.9000    0.3583    0.0000 C   0  0  0  0  0  0  0  0  0  0  0  0
    0.2625   -3.1667    0.0000 C   0  0  0  0  0  0  0  0  0  0  0  0
    4.6875   -0.1792    0.0000 O   0  0  0  0  0  0  0  0  0  0  0  0
    2.4000   -2.7542    0.0000 C   0  0  0  0  0  0  0  0  0  0  0  0
   -0.4583   -1.9292    0.0000 C   0  0  0  0  0  0  0  0  0  0  0  0
   -0.4583   -2.7542    0.0000 C   0  0  0  0  0  0  0  0  0  0  0  0
    5.4625   -0.2042    0.0000 C   0  0  0  0  0  0  0  0  0  0  0  0
    1.6875   -3.1667    0.0000 C   0  0  0  0  0  0  0  0  0  0  0  0
    5.7042    1.7708    0.0000 C   0  0  0  0  0  0  0  0  0  0  0  0
    1.6792   -2.2167    0.0000 F   0  0  0  0  0  0  0  0  0  0  0  0
    4.4750    1.0583    0.0000 C   0  0  0  0  0  0  0  0  0  0  0  0
    3.3250    0.6208    0.0000 O   0  0  0  0  0  0  0  0  0  0  0  0
    5.2917    1.0583    0.0000 O   0  0  0  0  0  0  0  0  0  0  0  0
    5.9167    0.5625    0.0000 O   0  0  0  0  0  0  0  0  0  0  0  0
    5.3000    2.4833    0.0000 O   0  0  0  0  0  0  0  0  0  0  0  0
   -1.1750   -3.1792    0.0000 O   0  0  0  0  0  0  0  0  0  0  0  0
    3.0792    0.0333    0.0000 C   0  0  0  0  0  0  0  0  0  0  0  0
    0.9625   -0.2625    0.0000 O   0  0  0  0  0  0  0  0  0  0  0  0
    0.9292   -1.1542    0.0000 C   0  0  0  0  0  0  0  0  0  0  0  0
    5.2125   -1.0917    0.0000 C   0  0  0  0  0  0  0  0  0  0  0  0
    5.9792   -0.8750    0.0000 C   0  0  0  0  0  0  0  0  0  0  0  0
    6.5292    1.7625    0.0000 C   0  0  0  0  0  0  0  0  0  0  0  0
    7.0125   -0.8750    0.0000 C   0  0  0  0  0  0  0  0  0  0  0  0
    6.9417    1.0458    0.0000 C   0  0  0  0  0  0  0  0  0  0  0  0
  2  8  1  0  0  0  0
  3  1  1  0  0  0  0
  4  2  1  0  0  0  0
  5  1  1  0  0  0  0
  6  5  1  0  0  0  0
  7  4  1  0  0  0  0
  8  9  1  0  0  0  0
  9  1  1  0  0  0  0
 10  3  1  0  0  0  0
 11  4  1  0  0  0  0
 12  5  1  0  0  0  0
  3 13  1  1  0  0  0
 14  7  2  0  0  0  0
  3 15  1  6  0  0  0
 16  6  1  0  0  0  0
 17 11  2  0  0  0  0
 18 17  1  0  0  0  0
 19 15  1  0  0  0  0
 20 16  1  0  0  0  0
 21 25  1  0  0  0  0
 22  2  1  6  0  0  0
 23 13  1  0  0  0  0
 24 13  2  0  0  0  0
 25 23  1  0  0  0  0
 26 19  2  0  0  0  0
 27 21  2  0  0  0  0
 28 18  2  0  0  0  0
  1 29  1  1  0  0  0
  8 30  1  1  0  0  0
  4 31  1  1  0  0  0
 10 32  1  1  0  0  0
 33 19  1  0  0  0  0
 34 21  1  0  0  0  0
 35 33  1  0  0  0  0
 36 34  1  0  0  0  0
 12 10  1  0  0  0  0
  6  2  1  0  0  0  0
 20  7  1  0  0  0  0
 18 14  1  0  0  0  0
M  END
> <#>
41

> <PLATE>
LAT001

> <ROW>
A

> <COL>
7

> <COORD>
A07

> <LATID>
LAT001A07

> <Supplier>
Microsource

> <Suplier_CAT#>
01503210

> <Name>
Betamethasone 17,21-Dipropionate

> <Concentration_(mM)>
2.5

> <IC50_(µM)>
>100

> <Yeast_Active?>
-

> <Pubchem_CID>
NULL

> <Description>
Glucocorticoid, Antiinflammatory

$$$$
