
  -ISIS-  08130814242D

 21 23  0  0  0  0  0  0  0  0999 V2000
   -4.2208    3.4458    0.0000 N   0  0  3  0  0  0  0  0  0  0  0  0
   -5.4083    3.1833    0.0000 N   0  0  0  0  0  0  0  0  0  0  0  0
   -5.3000    3.9208    0.0000 N   0  0  0  0  0  0  0  0  0  0  0  0
   -4.7208    2.8833    0.0000 C   0  0  0  0  0  0  0  0  0  0  0  0
   -4.5833    4.0792    0.0000 C   0  0  0  0  0  0  0  0  0  0  0  0
   -3.4625    3.4458    0.0000 N   0  0  0  0  0  0  0  0  0  0  0  0
   -3.1000    2.8000    0.0000 C   0  0  0  0  0  0  0  0  0  0  0  0
   -0.1000    2.8000    0.0000 O   0  0  0  0  0  0  0  0  0  0  0  0
   -2.3458    2.8000    0.0000 C   0  0  0  0  0  0  0  0  0  0  0  0
   -0.8625    2.8000    0.0000 C   0  0  0  0  0  0  0  0  0  0  0  0
    0.2792    3.4458    0.0000 C   0  0  0  0  0  0  0  0  0  0  0  0
   -1.9833    2.1625    0.0000 C   0  0  0  0  0  0  0  0  0  0  0  0
   -1.9833    3.4458    0.0000 C   0  0  0  0  0  0  0  0  0  0  0  0
   -1.2208    2.1625    0.0000 C   0  0  0  0  0  0  0  0  0  0  0  0
   -1.2208    3.4458    0.0000 C   0  0  0  0  0  0  0  0  0  0  0  0
    1.0167    3.4458    0.0000 C   0  0  0  0  0  0  0  0  0  0  0  0
    1.4000    4.0792    0.0000 C   0  0  0  0  0  0  0  0  0  0  0  0
    1.4000    2.8000    0.0000 C   0  0  0  0  0  0  0  0  0  0  0  0
    2.1292    2.8000    0.0000 C   0  0  0  0  0  0  0  0  0  0  0  0
    2.1292    4.0792    0.0000 C   0  0  0  0  0  0  0  0  0  0  0  0
    2.5167    3.4458    0.0000 C   0  0  0  0  0  0  0  0  0  0  0  0
  2  4  2  0  0  0  0
  3  5  2  0  0  0  0
  4  1  1  0  0  0  0
  5  1  1  0  0  0  0
  6  1  1  0  0  0  0
  7  6  2  0  0  0  0
  8 10  1  0  0  0  0
  9  7  1  0  0  0  0
 10 15  2  0  0  0  0
 11  8  1  0  0  0  0
 12  9  1  0  0  0  0
 13  9  2  0  0  0  0
 14 12  2  0  0  0  0
 15 13  1  0  0  0  0
 16 11  1  0  0  0  0
 17 16  2  0  0  0  0
 18 16  1  0  0  0  0
 19 18  2  0  0  0  0
 20 17  1  0  0  0  0
 21 19  1  0  0  0  0
  2  3  1  0  0  0  0
 14 10  1  0  0  0  0
 20 21  2  0  0  0  0
M  END
> <#>
1787

> <PLATE>
LAT023

> <ROW>
C

> <COL>
5

> <COORD>
C05

> <LATID>
LAT023C05

> <Supplier>
Chembridge

> <Suplier_CAT#>
5557947

> <Name>
Novel

> <Sec_Name>
167_H04

> <Concentration_(mM)>
2.5

> <IC50_(µM)>
>100

> <Yeast_Active?>
-

> <Pubchem_CID>
760724

$$$$
