
  -ISIS-  08130814242D

 17 18  0  0  0  0  0  0  0  0999 V2000
    0.0292    0.4333    0.0000 C   0  0  0  0  0  0  0  0  0  0  0  0
   -0.7000    0.4333    0.0000 C   0  0  0  0  0  0  0  0  0  0  0  0
    0.2375   -0.2500    0.0000 C   0  0  0  0  0  0  0  0  0  0  0  0
   -0.9333   -0.2292    0.0000 C   0  0  0  0  0  0  0  0  0  0  0  0
   -0.3500   -0.6667    0.0000 S   0  0  0  0  0  0  0  0  0  0  0  0
    0.4542    0.9958    0.0000 C   0  0  0  0  0  0  0  0  0  0  0  0
   -1.1333    1.0000    0.0000 C   0  0  0  0  0  0  0  0  0  0  0  0
    0.1875    1.6708    0.0000 O   0  0  0  0  0  0  0  0  0  0  0  0
    0.9000   -0.4542    0.0000 N   0  0  0  0  0  0  0  0  0  0  0  0
   -0.8625    1.6708    0.0000 C   0  0  0  0  0  0  0  0  0  0  0  0
   -1.8333    0.9125    0.0000 C   0  0  0  0  0  0  0  0  0  0  0  0
    1.1375    0.8458    0.0000 O   0  0  0  0  0  0  0  0  0  0  0  0
   -2.0125    2.1333    0.0000 C   0  0  0  0  0  0  0  0  0  0  0  0
   -2.2708    1.4625    0.0000 C   0  0  0  0  0  0  0  0  0  0  0  0
   -1.2958    2.2208    0.0000 C   0  0  0  0  0  0  0  0  0  0  0  0
   -2.4458    2.6708    0.0000 Br  0  0  0  0  0  0  0  0  0  0  0  0
    1.6292    1.3500    0.0000 C   0  0  0  0  0  0  0  0  0  0  0  0
  2  1  1  0  0  0  0
  3  1  2  0  0  0  0
  4  2  2  0  0  0  0
  5  3  1  0  0  0  0
  6  1  1  0  0  0  0
  7  2  1  0  0  0  0
  8  6  2  0  0  0  0
  9  3  1  0  0  0  0
 10  7  2  0  0  0  0
 11  7  1  0  0  0  0
 12  6  1  0  0  0  0
 13 14  1  0  0  0  0
 14 11  2  0  0  0  0
 15 10  1  0  0  0  0
 16 13  1  0  0  0  0
 17 12  1  0  0  0  0
  4  5  1  0  0  0  0
 15 13  2  0  0  0  0
M  END
> <#>
835

> <PLATE>
LAT011

> <ROW>
C

> <COL>
6

> <COORD>
C06

> <LATID>
LAT011C06

> <Supplier>
Chembridge

> <Suplier_CAT#>
5632675

> <Name>
Novel

> <Sec_Name>
193_E05

> <Concentration_(mM)>
2.5

> <IC50_(µM)>
100

> <Yeast_Active?>
+

> <Pubchem_CID>
712403

$$$$
