
  -ISIS-  08130814242D

 19 20  0  0  0  0  0  0  0  0999 V2000
    0.6292   -3.2667    0.0000 C   0  0  0  0  0  0  0  0  0  0  0  0
   -0.0833   -2.8625    0.0000 C   0  0  0  0  0  0  0  0  0  0  0  0
    1.3417   -2.8542    0.0000 C   0  0  0  0  0  0  0  0  0  0  0  0
   -0.7958   -3.2792    0.0000 C   0  0  0  0  0  0  0  0  0  0  0  0
   -0.0875   -2.0375    0.0000 O   0  0  0  0  0  0  0  0  0  0  0  0
   -0.7958   -4.1042    0.0000 C   0  0  0  0  0  0  0  0  0  0  0  0
   -1.5125   -2.8667    0.0000 C   0  0  0  0  0  0  0  0  0  0  0  0
    2.0625   -3.2667    0.0000 C   0  0  0  0  0  0  0  0  0  0  0  0
   -2.2250   -4.1042    0.0000 C   0  0  0  0  0  0  0  0  0  0  0  0
    3.4917   -4.0792    0.0000 C   0  0  0  0  0  0  0  0  0  0  0  0
   -1.5125   -4.5167    0.0000 C   0  0  0  0  0  0  0  0  0  0  0  0
   -2.2250   -3.2792    0.0000 C   0  0  0  0  0  0  0  0  0  0  0  0
    2.0625   -4.0917    0.0000 C   0  0  0  0  0  0  0  0  0  0  0  0
    2.7667   -2.8500    0.0000 C   0  0  0  0  0  0  0  0  0  0  0  0
    3.4792   -3.2542    0.0000 C   0  0  0  0  0  0  0  0  0  0  0  0
    2.7750   -4.5000    0.0000 C   0  0  0  0  0  0  0  0  0  0  0  0
   -2.9458   -4.5167    0.0000 O   0  0  0  0  0  0  0  0  0  0  0  0
    4.2042   -4.4917    0.0000 O   0  0  0  0  0  0  0  0  0  0  0  0
    4.2125   -5.3167    0.0000 C   0  0  0  0  0  0  0  0  0  0  0  0
  2  1  1  0  0  0  0
  3  1  2  0  0  0  0
  4  2  1  0  0  0  0
  5  2  2  0  0  0  0
  6  4  1  0  0  0  0
  7  4  2  0  0  0  0
  8  3  1  0  0  0  0
  9 12  2  0  0  0  0
 10 15  1  0  0  0  0
 11  6  2  0  0  0  0
 12  7  1  0  0  0  0
 13  8  2  0  0  0  0
 14  8  1  0  0  0  0
 15 14  2  0  0  0  0
 16 13  1  0  0  0  0
 17  9  1  0  0  0  0
 18 10  1  0  0  0  0
 19 18  1  0  0  0  0
 16 10  2  0  0  0  0
  9 11  1  0  0  0  0
M  END
> <#>
1333

> <PLATE>
LAT017

> <ROW>
E

> <COL>
8

> <COORD>
E08

> <LATID>
LAT017E08

> <Supplier>
Chembridge

> <Suplier_CAT#>
7207810

> <Name>
Novel

> <Concentration_(mM)>
2.5

> <IC50_(µM)>
100

> <Yeast_Active?>
-

> <Pubchem_CID>
97793

$$$$
