
  -ISIS-  08130814242D

 23 25  0  0  0  0  0  0  0  0999 V2000
    5.0167   -1.4792    0.0000 C   0  0  0  0  0  0  0  0  0  0  0  0
    4.5167   -2.0375    0.0000 O   0  0  0  0  0  0  0  0  0  0  0  0
    1.2375   -1.7292    0.0000 C   0  0  0  0  0  0  0  0  0  0  0  0
    5.7667   -1.5542    0.0000 C   0  0  0  0  0  0  0  0  0  0  0  0
    4.6500   -0.8292    0.0000 C   0  0  0  0  0  0  0  0  0  0  0  0
    3.8292   -1.7375    0.0000 C   0  0  0  0  0  0  0  0  0  0  0  0
    2.5292   -1.7292    0.0000 N   0  0  0  0  0  0  0  0  0  0  0  0
    3.9042   -0.9875    0.0000 C   0  0  0  0  0  0  0  0  0  0  0  0
    0.5875   -2.1042    0.0000 C   0  0  0  0  0  0  0  0  0  0  0  0
    3.1792   -2.1042    0.0000 C   0  0  0  0  0  0  0  0  0  0  0  0
    1.8792   -2.1042    0.0000 N   0  0  0  0  0  0  0  0  0  0  0  0
    0.5875   -2.8542    0.0000 N   0  0  0  0  0  0  0  0  0  0  0  0
    6.2042   -0.9542    0.0000 C   0  0  0  0  0  0  0  0  0  0  0  0
    1.2375   -0.9792    0.0000 O   0  0  0  0  0  0  0  0  0  0  0  0
    5.9000   -0.2667    0.0000 Cl  0  0  0  0  0  0  0  0  0  0  0  0
    6.0667   -2.2500    0.0000 C   0  0  0  0  0  0  0  0  0  0  0  0
   -0.0625   -3.2375    0.0000 C   0  0  0  0  0  0  0  0  0  0  0  0
   -0.0625   -1.7292    0.0000 C   0  0  0  0  0  0  0  0  0  0  0  0
    6.9500   -1.0375    0.0000 C   0  0  0  0  0  0  0  0  0  0  0  0
    6.8167   -2.3292    0.0000 C   0  0  0  0  0  0  0  0  0  0  0  0
   -0.7125   -2.8542    0.0000 C   0  0  0  0  0  0  0  0  0  0  0  0
    7.2542   -1.7167    0.0000 C   0  0  0  0  0  0  0  0  0  0  0  0
   -0.7125   -2.1042    0.0000 C   0  0  0  0  0  0  0  0  0  0  0  0
  2  1  1  0  0  0  0
  3 11  1  0  0  0  0
  4  1  1  0  0  0  0
  5  1  2  0  0  0  0
  6  2  1  0  0  0  0
  7 10  2  0  0  0  0
  8  5  1  0  0  0  0
  9  3  1  0  0  0  0
 10  6  1  0  0  0  0
 11  7  1  0  0  0  0
 12  9  2  0  0  0  0
 13  4  2  0  0  0  0
 14  3  2  0  0  0  0
 15 13  1  0  0  0  0
 16  4  1  0  0  0  0
 17 12  1  0  0  0  0
 18  9  1  0  0  0  0
 19 13  1  0  0  0  0
 20 16  2  0  0  0  0
 21 23  1  0  0  0  0
 22 20  1  0  0  0  0
 23 18  2  0  0  0  0
  6  8  2  0  0  0  0
 19 22  2  0  0  0  0
 21 17  2  0  0  0  0
M  END
> <#>
725

> <PLATE>
LAT010

> <ROW>
E

> <COL>
2

> <COORD>
E02

> <LATID>
LAT010E02

> <Supplier>
Chembridge

> <Suplier_CAT#>
5566408

> <Name>
Novel

> <Sec_Name>
173_B09

> <Concentration_(mM)>
2.5

> <IC50_(µM)>
26

> <Yeast_Active?>
-

> <Pubchem_CID>
5609983

$$$$
