
  -ISIS-  08130814242D

 22 23  0  0  0  0  0  0  0  0999 V2000
   -0.0125    0.0625    0.0000 C   0  0  0  0  0  0  0  0  0  0  0  0
   -1.4208    0.8708    0.0000 N   0  0  0  0  0  0  0  0  0  0  0  0
   -0.4833    0.8708    0.0000 N   0  0  0  0  0  0  0  0  0  0  0  0
   -0.4833   -0.7500    0.0000 O   0  0  0  0  0  0  0  0  0  0  0  0
    0.9167    0.0625    0.0000 C   0  0  0  0  0  0  0  0  0  0  0  0
    1.3792   -0.7500    0.0000 O   0  0  0  0  0  0  0  0  0  0  0  0
    2.3042   -0.7500    0.0000 C   0  0  0  0  0  0  0  0  0  0  0  0
   -1.8958    0.0625    0.0000 C   0  0  0  0  0  0  0  0  0  0  0  0
    4.1875   -0.7500    0.0000 C   0  0  0  0  0  0  0  0  0  0  0  0
    5.1167   -0.7500    0.0000 Cl  0  0  0  0  0  0  0  0  0  0  0  0
    2.7792   -1.5542    0.0000 C   0  0  0  0  0  0  0  0  0  0  0  0
    2.7792    0.0625    0.0000 C   0  0  0  0  0  0  0  0  0  0  0  0
    3.7167   -1.5542    0.0000 C   0  0  0  0  0  0  0  0  0  0  0  0
    3.7167    0.0625    0.0000 C   0  0  0  0  0  0  0  0  0  0  0  0
   -2.8333   -1.5667    0.0000 C   0  0  0  0  0  0  0  0  0  0  0  0
   -2.8208    0.0625    0.0000 C   0  0  0  0  0  0  0  0  0  0  0  0
   -3.3000   -0.7500    0.0000 C   0  0  0  0  0  0  0  0  0  0  0  0
   -1.8958   -1.5667    0.0000 C   0  0  0  0  0  0  0  0  0  0  0  0
   -3.3125   -2.3875    0.0000 C   0  0  0  0  0  0  0  0  0  0  0  0
   -1.4125   -2.3875    0.0000 C   0  0  0  0  0  0  0  0  0  0  0  0
   -2.8458   -3.2167    0.0000 C   0  0  0  0  0  0  0  0  0  0  0  0
   -1.8958   -3.2292    0.0000 C   0  0  0  0  0  0  0  0  0  0  0  0
  2  3  1  0  0  0  0
  3  1  1  0  0  0  0
  4  1  2  0  0  0  0
  5  1  1  0  0  0  0
  6  5  1  0  0  0  0
  7  6  1  0  0  0  0
  8  2  2  0  0  0  0
  9 14  1  0  0  0  0
 10  9  1  0  0  0  0
 11  7  2  0  0  0  0
 12  7  1  0  0  0  0
 13 11  1  0  0  0  0
 14 12  2  0  0  0  0
 15 17  1  0  0  0  0
 16  8  1  0  0  0  0
 17 16  1  0  0  0  0
 18 15  2  0  0  0  0
 19 15  1  0  0  0  0
 20 18  1  0  0  0  0
 21 19  2  0  0  0  0
 22 21  1  0  0  0  0
 13  9  2  0  0  0  0
 20 22  2  0  0  0  0
M  END
> <#>
796

> <PLATE>
LAT010

> <ROW>
D

> <COL>
11

> <COORD>
D11

> <LATID>
LAT010D11

> <Supplier>
Chembridge

> <Suplier_CAT#>
5572139

> <Name>
Novel

> <Sec_Name>
175_E08

> <Concentration_(mM)>
2.5

> <IC50_(µM)>
0.41

> <Yeast_Active?>
-

> <Pubchem_CID>
2853651

$$$$
