
  -ISIS-  08130814242D

 21 22  0  0  0  0  0  0  0  0999 V2000
   -1.7125    0.7708    0.0000 C   0  0  0  0  0  0  0  0  0  0  0  0
   -1.7125    1.4125    0.0000 C   0  0  0  0  0  0  0  0  0  0  0  0
   -2.2708    0.4500    0.0000 C   0  0  0  0  0  0  0  0  0  0  0  0
   -2.2708    1.7333    0.0000 C   0  0  0  0  0  0  0  0  0  0  0  0
   -2.8333    1.4125    0.0000 C   0  0  0  0  0  0  0  0  0  0  0  0
   -1.1333    0.4333    0.0000 C   0  0  0  0  0  0  0  0  0  0  0  0
   -2.8333    0.7708    0.0000 C   0  0  0  0  0  0  0  0  0  0  0  0
   -0.5958    1.4125    0.0000 O   0  0  0  0  0  0  0  0  0  0  0  0
   -0.0333    1.7333    0.0000 C   0  0  0  0  0  0  0  0  0  0  0  0
   -0.5958    0.7708    0.0000 C   0  0  0  0  0  0  0  0  0  0  0  0
   -1.1333   -0.2000    0.0000 O   0  0  0  0  0  0  0  0  0  0  0  0
    0.5167    1.4125    0.0000 C   0  0  0  0  0  0  0  0  0  0  0  0
   -1.1500    1.7500    0.0000 O   0  0  0  0  0  0  0  0  0  0  0  0
   -3.4125    1.7125    0.0000 O   0  0  0  0  0  0  0  0  0  0  0  0
    0.5167    0.8000    0.0000 F   0  0  0  0  0  0  0  0  0  0  0  0
   -3.4125    0.4708    0.0000 C   0  0  0  0  0  0  0  0  0  0  0  0
   -0.0333    2.3708    0.0000 C   0  0  0  0  0  0  0  0  0  0  0  0
    1.0792    1.7333    0.0000 C   0  0  0  0  0  0  0  0  0  0  0  0
   -3.9708    0.8125    0.0000 C   0  0  0  0  0  0  0  0  0  0  0  0
    1.0792    2.3708    0.0000 C   0  0  0  0  0  0  0  0  0  0  0  0
    0.5167    2.6958    0.0000 C   0  0  0  0  0  0  0  0  0  0  0  0
  2  1  2  0  0  0  0
  3  1  1  0  0  0  0
  4  2  1  0  0  0  0
  5  7  1  0  0  0  0
  6  1  1  0  0  0  0
  7  3  2  0  0  0  0
  8 10  1  0  0  0  0
  9  8  1  0  0  0  0
 10  6  1  0  0  0  0
 11  6  2  0  0  0  0
 12  9  2  0  0  0  0
 13  2  1  0  0  0  0
 14  5  1  0  0  0  0
 15 12  1  0  0  0  0
 16  7  1  0  0  0  0
 17  9  1  0  0  0  0
 18 12  1  0  0  0  0
 19 16  1  0  0  0  0
 20 21  1  0  0  0  0
 21 17  2  0  0  0  0
  5  4  2  0  0  0  0
 20 18  2  0  0  0  0
M  END
> <#>
1305

> <PLATE>
LAT017

> <ROW>
A

> <COL>
5

> <COORD>
A05

> <LATID>
LAT017A05

> <Supplier>
Chembridge

> <Suplier_CAT#>
6643695

> <Name>
Novel

> <Concentration_(mM)>
2.5

> <IC50_(µM)>
>100

> <Yeast_Active?>
-

> <Pubchem_CID>
886160

$$$$
