
  -ISIS-  08130814242D

 27 30  0  0  0  0  0  0  0  0999 V2000
    2.9667   -0.6500    0.0000 N   0  0  3  0  0  0  0  0  0  0  0  0
   -1.4833   -0.4167    0.0000 N   0  3  0  0  0  0  0  0  0  0  0  0
    3.3667   -0.0667    0.0000 C   0  0  0  0  0  0  0  0  0  0  0  0
    2.9667    0.5125    0.0000 N   0  0  0  0  0  0  0  0  0  0  0  0
    2.2875   -0.4292    0.0000 C   0  0  0  0  0  0  0  0  0  0  0  0
    2.2875    0.2958    0.0000 C   0  0  0  0  0  0  0  0  0  0  0  0
   -1.4958    0.2958    0.0000 C   0  0  0  0  0  0  0  0  0  0  0  0
    3.2042   -1.3042    0.0000 C   0  0  0  0  0  0  0  0  0  0  0  0
   -0.8708    0.6500    0.0000 C   0  0  0  0  0  0  0  0  0  0  0  0
    0.3875    0.6500    0.0000 N   0  0  0  0  0  0  0  0  0  0  0  0
   -0.2500    0.2958    0.0000 C   0  0  0  0  0  0  0  0  0  0  0  0
    1.6667    0.6500    0.0000 C   0  0  0  0  0  0  0  0  0  0  0  0
    1.6667   -0.7875    0.0000 C   0  0  0  0  0  0  0  0  0  0  0  0
   -2.0625   -0.8500    0.0000 O   0  5  0  0  0  0  0  0  0  0  0  0
   -0.8833   -0.8000    0.0000 O   0  0  0  0  0  0  0  0  0  0  0  0
    1.0292    0.2958    0.0000 C   0  0  0  0  0  0  0  0  0  0  0  0
    2.7500   -1.8500    0.0000 C   0  0  0  0  0  0  0  0  0  0  0  0
    3.9042   -1.4500    0.0000 C   0  0  0  0  0  0  0  0  0  0  0  0
    1.0292   -0.4292    0.0000 C   0  0  0  0  0  0  0  0  0  0  0  0
    2.9875   -2.5292    0.0000 C   0  0  0  0  0  0  0  0  0  0  0  0
    4.1500   -2.1042    0.0000 C   0  0  0  0  0  0  0  0  0  0  0  0
    3.6875   -2.6667    0.0000 C   0  0  0  0  0  0  0  0  0  0  0  0
   -2.1333    0.6500    0.0000 C   0  0  0  0  0  0  0  0  0  0  0  0
   -0.8708    1.3708    0.0000 C   0  0  0  0  0  0  0  0  0  0  0  0
    3.9292   -3.3667    0.0000 C   0  0  0  0  0  0  0  0  0  0  0  0
   -2.1333    1.3708    0.0000 C   0  0  0  0  0  0  0  0  0  0  0  0
   -1.4958    1.7333    0.0000 C   0  0  0  0  0  0  0  0  0  0  0  0
  2  7  1  0  0  0  0
  3  1  1  0  0  0  0
  4  3  2  0  0  0  0
  5  1  1  0  0  0  0
  6  5  2  0  0  0  0
  7  9  2  0  0  0  0
  8  1  1  0  0  0  0
  9 11  1  0  0  0  0
 10 16  1  0  0  0  0
 11 10  2  0  0  0  0
 12  6  1  0  0  0  0
 13  5  1  0  0  0  0
 14  2  1  0  0  0  0
 15  2  2  0  0  0  0
 16 19  1  0  0  0  0
 17  8  1  0  0  0  0
 18  8  2  0  0  0  0
 19 13  2  0  0  0  0
 20 17  2  0  0  0  0
 21 18  1  0  0  0  0
 22 21  2  0  0  0  0
 23  7  1  0  0  0  0
 24  9  1  0  0  0  0
 25 22  1  0  0  0  0
 26 27  1  0  0  0  0
 27 24  2  0  0  0  0
  6  4  1  0  0  0  0
 20 22  1  0  0  0  0
 12 16  2  0  0  0  0
 23 26  2  0  0  0  0
M  CHG  2   2   1  14  -1
M  END
> <#>
809

> <PLATE>
LAT011

> <ROW>
A

> <COL>
3

> <COORD>
A03

> <LATID>
LAT011A03

> <Supplier>
Chembridge

> <Suplier_CAT#>
5659090

> <Name>
Novel

> <Sec_Name>
204_F10

> <Concentration_(mM)>
2.5

> <IC50_(µM)>
54

> <Yeast_Active?>
-

> <Pubchem_CID>
1223246

$$$$
