
  -ISIS-  08130814242D

 26 29  0  0  0  0  0  0  0  0999 V2000
    0.4792   -2.5000    0.0000 N   0  0  3  0  0  0  0  0  0  0  0  0
    0.9167   -3.0167    0.0000 C   0  0  0  0  0  0  0  0  0  0  0  0
    0.8375   -1.9375    0.0000 C   0  0  0  0  0  0  0  0  0  0  0  0
    1.5375   -2.7792    0.0000 C   0  0  3  0  0  0  0  0  0  0  0  0
    1.5000   -2.1167    0.0000 C   0  0  0  0  0  0  0  0  0  0  0  0
    2.1292   -3.0792    0.0000 N   0  0  3  0  0  0  0  0  0  0  0  0
    0.7542   -3.7000    0.0000 O   0  0  0  0  0  0  0  0  0  0  0  0
   -0.1833   -2.3375    0.0000 C   0  0  0  0  0  0  0  0  0  0  0  0
    0.5792   -1.3000    0.0000 O   0  0  0  0  0  0  0  0  0  0  0  0
    2.1792   -3.7542    0.0000 C   0  0  0  0  0  0  0  0  0  0  0  0
    2.7000   -2.7167    0.0000 C   0  0  0  0  0  0  0  0  0  0  0  0
    3.9792   -3.9542    0.0000 C   0  0  0  0  0  0  0  0  0  0  0  0
    2.7792   -4.0792    0.0000 C   0  0  0  0  0  0  0  0  0  0  0  0
    3.3000   -3.0167    0.0000 C   0  0  0  0  0  0  0  0  0  0  0  0
    3.3375   -3.6792    0.0000 C   0  0  3  0  0  0  0  0  0  0  0  0
    4.5167   -3.5542    0.0000 C   0  0  0  0  0  0  0  0  0  0  0  0
   -0.3458   -1.6792    0.0000 C   0  0  0  0  0  0  0  0  0  0  0  0
   -0.6625   -2.8167    0.0000 C   0  0  0  0  0  0  0  0  0  0  0  0
    5.1375   -3.8375    0.0000 C   0  0  0  0  0  0  0  0  0  0  0  0
    4.4375   -2.9000    0.0000 C   0  0  0  0  0  0  0  0  0  0  0  0
   -1.3208   -2.6375    0.0000 C   0  0  0  0  0  0  0  0  0  0  0  0
   -1.0000   -1.5000    0.0000 C   0  0  0  0  0  0  0  0  0  0  0  0
    4.9792   -2.5000    0.0000 C   0  0  0  0  0  0  0  0  0  0  0  0
    5.6792   -3.4375    0.0000 C   0  0  0  0  0  0  0  0  0  0  0  0
   -1.5000   -2.0000    0.0000 C   0  0  0  0  0  0  0  0  0  0  0  0
    5.6000   -2.7542    0.0000 C   0  0  0  0  0  0  0  0  0  0  0  0
  2  1  1  0  0  0  0
  3  1  1  0  0  0  0
  4  2  1  0  0  0  0
  5  3  1  0  0  0  0
  6  4  1  0  0  0  0
  7  2  2  0  0  0  0
  8  1  1  0  0  0  0
  9  3  2  0  0  0  0
 10  6  1  0  0  0  0
 11  6  1  0  0  0  0
 12 15  1  0  0  0  0
 13 10  1  0  0  0  0
 14 11  1  0  0  0  0
 15 14  1  0  0  0  0
 16 12  1  0  0  0  0
 17  8  2  0  0  0  0
 18  8  1  0  0  0  0
 19 16  2  0  0  0  0
 20 16  1  0  0  0  0
 21 18  2  0  0  0  0
 22 17  1  0  0  0  0
 23 20  2  0  0  0  0
 24 19  1  0  0  0  0
 25 21  1  0  0  0  0
 26 23  1  0  0  0  0
  5  4  1  0  0  0  0
 25 22  2  0  0  0  0
 15 13  1  0  0  0  0
 24 26  2  0  0  0  0
M  END
> <#>
1994

> <PLATE>
LAT025

> <ROW>
B

> <COL>
11

> <COORD>
B11

> <LATID>
LAT025B11

> <Supplier>
Chembridge

> <Suplier_CAT#>
5531102

> <Sec_Name>
153_C02

> <Concentration_(mM)>
2.5

> <IC50_(µM)>
inactive

> <Yeast_Active?>
-

> <Pubchem_CID>
683091

$$$$
