
  -ISIS-  08130814242D

 23 25  0  0  0  0  0  0  0  0999 V2000
   -2.1833    1.5000    0.0000 C   0  0  0  0  0  0  0  0  0  0  0  0
   -2.1833    0.8458    0.0000 C   0  0  0  0  0  0  0  0  0  0  0  0
   -2.7625    0.5125    0.0000 C   0  0  0  0  0  0  0  0  0  0  0  0
   -2.7625    1.8333    0.0000 C   0  0  0  0  0  0  0  0  0  0  0  0
   -3.3458    0.8458    0.0000 C   0  0  0  0  0  0  0  0  0  0  0  0
   -3.3458    1.5000    0.0000 C   0  0  0  0  0  0  0  0  0  0  0  0
   -1.6208    1.8000    0.0000 N   0  0  3  0  0  0  0  0  0  0  0  0
   -1.6458    0.5333    0.0000 N   0  0  3  0  0  0  0  0  0  0  0  0
   -0.9000    1.7000    0.0000 C   0  0  0  0  0  0  0  0  0  0  0  0
   -2.7625    2.2708    0.0000 O   0  0  0  0  0  0  0  0  0  0  0  0
   -2.7625    0.1208    0.0000 O   0  0  0  0  0  0  0  0  0  0  0  0
   -0.5708    2.0958    0.0000 O   0  0  0  0  0  0  0  0  0  0  0  0
   -3.9208    0.5125    0.0000 C   0  0  0  0  0  0  0  0  0  0  0  0
   -3.9208    1.8333    0.0000 C   0  0  0  0  0  0  0  0  0  0  0  0
   -1.6125    2.4208    0.0000 C   0  0  0  0  0  0  0  0  0  0  0  0
   -1.1000    0.8458    0.0000 C   0  0  0  0  0  0  0  0  0  0  0  0
   -1.6458   -0.0875    0.0000 C   0  0  0  0  0  0  0  0  0  0  0  0
   -0.7958    1.2958    0.0000 C   0  0  0  0  0  0  0  0  0  0  0  0
   -4.5000    0.8458    0.0000 C   0  0  0  0  0  0  0  0  0  0  0  0
   -4.5000    1.5000    0.0000 C   0  0  0  0  0  0  0  0  0  0  0  0
   -0.5500    0.5333    0.0000 C   0  0  0  0  0  0  0  0  0  0  0  0
   -1.0958   -0.4042    0.0000 C   0  0  0  0  0  0  0  0  0  0  0  0
   -0.5500   -0.0875    0.0000 C   0  0  0  0  0  0  0  0  0  0  0  0
  2  1  2  0  0  0  0
  3  2  1  0  0  0  0
  4  1  1  0  0  0  0
  5  6  2  0  0  0  0
  6  4  1  0  0  0  0
  7  1  1  0  0  0  0
  8  2  1  0  0  0  0
  9  7  1  0  0  0  0
 10  4  2  0  0  0  0
 11  3  2  0  0  0  0
 12  9  2  0  0  0  0
 13  5  1  0  0  0  0
 14  6  1  0  0  0  0
 15  7  1  0  0  0  0
 16  8  1  0  0  0  0
 17  8  1  0  0  0  0
 18  9  1  0  0  0  0
 19 20  1  0  0  0  0
 20 14  2  0  0  0  0
 21 16  1  0  0  0  0
 22 17  1  0  0  0  0
 23 22  1  0  0  0  0
  3  5  1  0  0  0  0
 13 19  2  0  0  0  0
 23 21  1  0  0  0  0
M  END
> <#>
756

> <PLATE>
LAT010

> <ROW>
D

> <COL>
6

> <COORD>
D06

> <LATID>
LAT010D06

> <Supplier>
Chembridge

> <Suplier_CAT#>
5604038

> <Name>
Novel

> <Sec_Name>
182_H11

> <Concentration_(mM)>
2.5

> <IC50_(µM)>
22

> <Yeast_Active?>
-

> <Pubchem_CID>
NULL

$$$$
