
  -ISIS-  08130814242D

 21 22  0  0  0  0  0  0  0  0999 V2000
   -1.9208    1.6708    0.0000 C   0  0  3  0  0  0  0  0  0  0  0  0
   -1.6000    0.4208    0.0000 C   0  0  3  0  0  0  0  0  0  0  0  0
   -0.6833    1.2958    0.0000 C   0  0  3  0  0  0  0  0  0  0  0  0
    0.2292    2.1958    0.0000 C   0  0  0  0  0  0  0  0  0  0  0  0
   -1.9708   -0.7875    0.0000 C   0  0  0  0  0  0  0  0  0  0  0  0
    1.4500    1.8458    0.0000 N   0  0  0  0  0  0  0  0  0  0  0  0
   -3.0500   -1.3792    0.0000 C   0  0  0  0  0  0  0  0  0  0  0  0
   -0.0708    3.4333    0.0000 O   0  0  0  0  0  0  0  0  0  0  0  0
   -2.2458    2.8833    0.0000 C   0  0  0  0  0  0  0  0  0  0  0  0
   -3.1833    1.6958    0.0000 C   0  0  0  0  0  0  0  0  0  0  0  0
    1.7375    0.5833    0.0000 C   0  0  0  0  0  0  0  0  0  0  0  0
   -3.0708   -2.6167    0.0000 Cl  0  0  0  0  0  0  0  0  0  0  0  0
   -4.1708   -0.7042    0.0000 Cl  0  0  0  0  0  0  0  0  0  0  0  0
    2.3292   -1.8167    0.0000 C   0  0  0  0  0  0  0  0  0  0  0  0
    0.8042   -0.2667    0.0000 C   0  0  0  0  0  0  0  0  0  0  0  0
    2.9500    0.2625    0.0000 C   0  0  0  0  0  0  0  0  0  0  0  0
    1.0875   -1.4792    0.0000 C   0  0  0  0  0  0  0  0  0  0  0  0
    3.2792   -0.9542    0.0000 C   0  0  0  0  0  0  0  0  0  0  0  0
    2.4667   -2.9167    0.0000 O   0  0  0  0  0  0  0  0  0  0  0  0
    3.7667   -3.2875    0.0000 C   0  0  0  0  0  0  0  0  0  0  0  0
    4.8167   -2.5542    0.0000 C   0  0  0  0  0  0  0  0  0  0  0  0
  2  1  1  0  0  0  0
  3  1  1  0  0  0  0
  4  3  1  0  0  0  0
  5  2  1  0  0  0  0
  6  4  1  0  0  0  0
  7  5  2  0  0  0  0
  8  4  2  0  0  0  0
  9  1  1  0  0  0  0
 10  1  1  0  0  0  0
 11  6  1  0  0  0  0
 12  7  1  0  0  0  0
 13  7  1  0  0  0  0
 14 18  2  0  0  0  0
 15 11  1  0  0  0  0
 16 11  2  0  0  0  0
 17 15  2  0  0  0  0
 18 16  1  0  0  0  0
 19 14  1  0  0  0  0
 20 19  1  0  0  0  0
 21 20  1  0  0  0  0
  2  3  1  0  0  0  0
 14 17  1  0  0  0  0
M  END
> <#>
696

> <PLATE>
LAT009

> <ROW>
H

> <COL>
8

> <COORD>
H08

> <LATID>
LAT009H08

> <Supplier>
Chembridge

> <Suplier_CAT#>
5557286

> <Name>
Novel

> <Sec_Name>
166_C02

> <Concentration_(mM)>
2.5

> <IC50_(µM)>
28

> <Yeast_Active?>
-

> <Pubchem_CID>
678759

$$$$
