
  -ISIS-  08130814242D

 20 21  0  0  0  0  0  0  0  0999 V2000
    4.4542   -3.3292    0.0000 C   0  0  2  0  0  0  0  0  0  0  0  0
    7.0542   -3.3417    0.0000 C   0  0  0  0  0  0  0  0  0  0  0  0
    4.4542   -4.0792    0.0000 C   0  0  3  0  0  0  0  0  0  0  0  0
    3.1542   -3.3292    0.0000 C   0  0  0  0  0  0  0  0  0  0  0  0
    8.3625   -3.3500    0.0000 O   0  0  0  0  0  0  0  0  0  0  0  0
    6.4000   -2.9625    0.0000 C   0  0  0  0  0  0  0  0  0  0  0  0
    5.7500   -3.3375    0.0000 C   0  0  0  0  0  0  0  0  0  0  0  0
    3.8042   -4.4542    0.0000 C   0  0  0  0  0  0  0  0  0  0  0  0
    3.1542   -4.0792    0.0000 C   0  0  2  0  0  0  0  0  0  0  0  0
    5.0958   -4.4583    0.0000 C   0  0  0  0  0  0  0  0  0  0  0  0
    7.4625   -2.6250    0.0000 O   0  0  0  0  0  0  0  0  0  0  0  0
    5.7500   -4.0917    0.0000 C   0  0  0  0  0  0  0  0  0  0  0  0
    4.0375   -2.6167    0.0000 O   0  0  0  0  0  0  0  0  0  0  0  0
    5.1042   -2.9583    0.0000 C   0  0  0  0  0  0  0  0  0  0  0  0
    8.3542   -4.1042    0.0000 C   0  0  1  0  0  0  0  0  0  0  0  0
    2.5083   -4.4542    0.0000 O   0  0  0  0  0  0  0  0  0  0  0  0
    6.3958   -4.4667    0.0000 C   0  0  0  0  0  0  0  0  0  0  0  0
    9.0083   -4.4875    0.0000 C   0  0  0  0  0  0  0  0  0  0  0  0
    7.7000   -4.4792    0.0000 C   0  0  0  0  0  0  0  0  0  0  0  0
    7.0500   -4.1000    0.0000 C   0  0  0  0  0  0  0  0  0  0  0  0
  2  6  1  0  0  0  0
  3  1  1  0  0  0  0
  4  1  1  0  0  0  0
  5  2  1  0  0  0  0
  6  7  2  0  0  0  0
  7 14  1  0  0  0  0
  8  3  1  0  0  0  0
  9  4  1  0  0  0  0
 10  3  1  0  0  0  0
 11  2  2  0  0  0  0
 12 10  2  0  0  0  0
  1 13  1  6  0  0  0
 14  1  1  0  0  0  0
 15  5  1  0  0  0  0
  9 16  1  6  0  0  0
 17 12  1  0  0  0  0
 15 18  1  1  0  0  0
 19 20  1  0  0  0  0
 20 17  1  0  0  0  0
  9  8  1  0  0  0  0
 19 15  1  0  0  0  0
M  END
> <#>
205

> <PLATE>
LAT003

> <ROW>
E

> <COL>
7

> <COORD>
E07

> <LATID>
LAT003E07

> <Supplier>
Sigma

> <Suplier_CAT#>
B 7651

> <Name>
Brefeldin A

> <Concentration_(mM)>
2.5

> <IC50_(µM)>
3.7

> <Yeast_Active?>
-

> <Pubchem_CID>
6603744

> <Description>
Fungal metabolite that disrupts the structure and function of the Golgi apparatus

$$$$
