
  -ISIS-  08130814242D

 36 38  0  0  0  0  0  0  0  0999 V2000
    3.0375   -0.7000    0.0000 C   0  0  2  0  0  0  0  0  0  0  0  0
    4.4708   -0.6917    0.0000 C   0  0  0  0  0  0  0  0  0  0  0  0
    1.6083   -0.7042    0.0000 C   0  0  0  0  0  0  0  0  0  0  0  0
    2.3208   -1.1083    0.0000 C   0  0  0  0  0  0  0  0  0  0  0  0
    3.7542   -1.1083    0.0000 C   0  0  0  0  0  0  0  0  0  0  0  0
    4.4667    0.1417    0.0000 C   0  0  0  0  0  0  0  0  0  0  0  0
    0.8875   -1.1125    0.0000 C   0  0  0  0  0  0  0  0  0  0  0  0
    3.0292    0.1333    0.0000 C   0  0  2  0  0  0  0  0  0  0  0  0
    0.1792   -0.7042    0.0000 C   0  0  0  0  0  0  0  0  0  0  0  0
    0.1750    0.1208    0.0000 C   0  0  0  0  0  0  0  0  0  0  0  0
    1.6000    0.1250    0.0000 C   0  0  1  0  0  0  0  0  0  0  0  0
    3.7458    0.5542    0.0000 C   0  0  2  0  0  0  0  0  0  0  0  0
   -0.5375    0.5375    0.0000 C   0  0  0  0  0  0  0  0  0  0  0  0
    0.8875    0.5375    0.0000 C   0  0  0  0  0  0  0  0  0  0  0  0
    2.3125    0.5458    0.0000 C   0  0  0  0  0  0  0  0  0  0  0  0
    5.1833   -1.1042    0.0000 C   0  0  0  0  0  0  0  0  0  0  0  0
   -1.2500    0.1208    0.0000 C   0  0  0  0  0  0  0  0  0  0  0  0
   -0.5375   -1.1125    0.0000 C   0  0  0  0  0  0  0  0  0  0  0  0
    3.7500   -1.9292    0.0000 O   0  0  0  0  0  0  0  0  0  0  0  0
    0.8833   -1.9375    0.0000 O   0  0  0  0  0  0  0  0  0  0  0  0
   -0.5417    1.3625    0.0000 N   0  0  3  0  0  0  0  0  0  0  0  0
    3.0333   -1.5250    0.0000 O   0  0  0  0  0  0  0  0  0  0  0  0
    5.1750   -1.9292    0.0000 O   0  0  0  0  0  0  0  0  0  0  0  0
    2.3125   -1.9292    0.0000 O   0  0  0  0  0  0  0  0  0  0  0  0
    5.1750    0.5583    0.0000 O   0  0  0  0  0  0  0  0  0  0  0  0
   -1.2500   -0.7042    0.0000 C   0  0  0  0  0  0  0  0  0  0  0  0
    3.7375    1.3833    0.0000 C   0  0  3  0  0  0  0  0  0  0  0  0
    6.0083   -1.1042    0.0000 N   0  0  0  0  0  0  0  0  0  0  0  0
   -0.5417   -1.9375    0.0000 O   0  0  0  0  0  0  0  0  0  0  0  0
    0.1708    1.7833    0.0000 C   0  0  0  0  0  0  0  0  0  0  0  0
   -1.2625    1.7750    0.0000 C   0  0  0  0  0  0  0  0  0  0  0  0
    4.4500    1.7958    0.0000 C   0  0  0  0  0  0  0  0  0  0  0  0
    3.0250    1.7958    0.0000 C   0  0  0  0  0  0  0  0  0  0  0  0
    1.5958    0.9500    0.0000 H   0  0  0  0  0  0  0  0  0  0  0  0
    3.0250    0.9583    0.0000 H   0  0  0  0  0  0  0  0  0  0  0  0
    8.5750   -0.1875    0.0000 Cl  0  0  0  0  0  0  0  0  0  0  0  0
  2  5  1  0  0  0  0
  3  4  2  0  0  0  0
  4  1  1  0  0  0  0
  5  1  1  0  0  0  0
  6 12  1  0  0  0  0
  7  3  1  0  0  0  0
  8  1  1  0  0  0  0
  9  7  1  0  0  0  0
 10 14  1  0  0  0  0
 11 15  1  0  0  0  0
 12  8  1  0  0  0  0
 13 10  1  0  0  0  0
 14 11  1  0  0  0  0
 15  8  1  0  0  0  0
 16  2  1  0  0  0  0
 17 13  2  0  0  0  0
 18  9  1  0  0  0  0
 19  5  2  0  0  0  0
 20  7  2  0  0  0  0
 21 13  1  0  0  0  0
  1 22  1  6  0  0  0
 23 16  2  0  0  0  0
 24  4  1  0  0  0  0
 25  6  1  0  0  0  0
 26 18  2  0  0  0  0
 12 27  1  6  0  0  0
 28 16  1  0  0  0  0
 29 18  1  0  0  0  0
 30 21  1  0  0  0  0
 31 21  1  0  0  0  0
 32 27  1  0  0  0  0
 33 27  1  0  0  0  0
 11 34  1  6  0  0  0
  8 35  1  6  0  0  0
  3 11  1  0  0  0  0
  6  2  2  0  0  0  0
  9 10  2  0  0  0  0
 26 17  1  0  0  0  0
M  END
> <#>
251

> <PLATE>
LAT004

> <ROW>
C

> <COL>
3

> <COORD>
C03

> <LATID>
LAT004C03

> <Supplier>
Sigma

> <Suplier_CAT#>
M 9511

> <Name>
Minocycline Hydrochloride

> <Concentration_(mM)>
2.5

> <IC50_(µM)>
8.5

> <Yeast_Active?>
-

> <Pubchem_CID>
5281021

> <Description>
Basement membrane protease inhibitor; inhibits endothelial cell proliferation and angiogenesis.

$$$$
