
  -ISIS-  08130814242D

 21 22  0  0  0  0  0  0  0  0999 V2000
   -1.5833   -0.3542    0.0000 C   0  0  0  0  0  0  0  0  0  0  0  0
   -1.5833    0.3625    0.0000 C   0  0  0  0  0  0  0  0  0  0  0  0
   -2.2000   -0.7375    0.0000 C   0  0  0  0  0  0  0  0  0  0  0  0
   -2.2000    0.7208    0.0000 C   0  0  0  0  0  0  0  0  0  0  0  0
   -2.8458    0.3625    0.0000 C   0  0  0  0  0  0  0  0  0  0  0  0
   -0.9458   -0.7375    0.0000 C   0  0  0  0  0  0  0  0  0  0  0  0
   -2.8458   -0.3542    0.0000 C   0  0  0  0  0  0  0  0  0  0  0  0
   -0.3000   -0.3542    0.0000 C   0  0  0  0  0  0  0  0  0  0  0  0
   -0.9458   -1.4792    0.0000 O   0  0  0  0  0  0  0  0  0  0  0  0
   -0.3000    0.3625    0.0000 O   0  0  0  0  0  0  0  0  0  0  0  0
   -0.9625    0.7458    0.0000 O   0  0  0  0  0  0  0  0  0  0  0  0
    0.3375    0.7208    0.0000 C   0  0  0  0  0  0  0  0  0  0  0  0
    1.6167    1.4625    0.0000 C   0  0  0  0  0  0  0  0  0  0  0  0
   -3.5000    0.7000    0.0000 O   0  0  0  0  0  0  0  0  0  0  0  0
    2.2792    1.8208    0.0000 Cl  0  0  0  0  0  0  0  0  0  0  0  0
    0.9792    0.3625    0.0000 C   0  0  0  0  0  0  0  0  0  0  0  0
    0.3375    1.4625    0.0000 C   0  0  0  0  0  0  0  0  0  0  0  0
    0.9792    1.8208    0.0000 C   0  0  0  0  0  0  0  0  0  0  0  0
    1.6167    0.7208    0.0000 C   0  0  0  0  0  0  0  0  0  0  0  0
   -3.5000   -0.7167    0.0000 C   0  0  0  0  0  0  0  0  0  0  0  0
   -4.1458   -0.3000    0.0000 C   0  0  0  0  0  0  0  0  0  0  0  0
  2  1  2  0  0  0  0
  3  1  1  0  0  0  0
  4  2  1  0  0  0  0
  5  7  1  0  0  0  0
  6  1  1  0  0  0  0
  7  3  2  0  0  0  0
  8  6  1  0  0  0  0
  9  6  2  0  0  0  0
 10  8  1  0  0  0  0
 11  2  1  0  0  0  0
 12 10  1  0  0  0  0
 13 18  1  0  0  0  0
 14  5  1  0  0  0  0
 15 13  1  0  0  0  0
 16 12  2  0  0  0  0
 17 12  1  0  0  0  0
 18 17  2  0  0  0  0
 19 16  1  0  0  0  0
 20  7  1  0  0  0  0
 21 20  1  0  0  0  0
  5  4  2  0  0  0  0
 19 13  2  0  0  0  0
M  END
> <#>
1298

> <PLATE>
LAT017

> <ROW>
B

> <COL>
4

> <COORD>
B04

> <LATID>
LAT017B04

> <Supplier>
Chembridge

> <Suplier_CAT#>
6946520

> <Name>
Novel

> <Concentration_(mM)>
2.5

> <IC50_(µM)>
0.96

> <Yeast_Active?>
-

> <Pubchem_CID>
801098

$$$$
