
  -ISIS-  08130814242D

 21 19  0  0  0  0  0  0  0  0999 V2000
   -1.6000    0.5625    0.0000 Br  0  5  0  0  0  0  0  0  0  0  0  0
   -2.5083   -0.9542    0.0000 N   0  3  3  0  0  0  0  0  0  0  0  0
   -1.7958   -1.3667    0.0000 C   0  0  0  0  0  0  0  0  0  0  0  0
   -2.5125   -0.1292    0.0000 C   0  0  0  0  0  0  0  0  0  0  0  0
   -3.2208   -0.5500    0.0000 C   0  0  0  0  0  0  0  0  0  0  0  0
   -3.2208   -1.3667    0.0000 C   0  0  0  0  0  0  0  0  0  0  0  0
   -1.0833   -0.9542    0.0000 C   0  0  0  0  0  0  0  0  0  0  0  0
    8.1792   -1.3375    0.0000 C   0  0  0  0  0  0  0  0  0  0  0  0
    7.4667   -0.9292    0.0000 C   0  0  0  0  0  0  0  0  0  0  0  0
    1.7667   -0.9417    0.0000 C   0  0  0  0  0  0  0  0  0  0  0  0
    2.4792   -1.3542    0.0000 C   0  0  0  0  0  0  0  0  0  0  0  0
    3.1917   -0.9417    0.0000 C   0  0  0  0  0  0  0  0  0  0  0  0
    3.9042   -1.3500    0.0000 C   0  0  0  0  0  0  0  0  0  0  0  0
    4.6167   -0.9375    0.0000 C   0  0  0  0  0  0  0  0  0  0  0  0
    5.3292   -1.3417    0.0000 C   0  0  0  0  0  0  0  0  0  0  0  0
    6.0417   -0.9292    0.0000 C   0  0  0  0  0  0  0  0  0  0  0  0
    6.7542   -1.3417    0.0000 C   0  0  0  0  0  0  0  0  0  0  0  0
   -0.3708   -1.3625    0.0000 C   0  0  0  0  0  0  0  0  0  0  0  0
    0.3417   -0.9500    0.0000 C   0  0  0  0  0  0  0  0  0  0  0  0
    1.0542   -1.3542    0.0000 C   0  0  0  0  0  0  0  0  0  0  0  0
    8.8917   -0.9250    0.0000 C   0  0  0  0  0  0  0  0  0  0  0  0
  3  2  1  0  0  0  0
  4  2  1  0  0  0  0
  5  2  1  0  0  0  0
  6  2  1  0  0  0  0
  7  3  1  0  0  0  0
  8  9  1  0  0  0  0
  9 17  1  0  0  0  0
 10 20  1  0  0  0  0
 11 10  1  0  0  0  0
 12 11  1  0  0  0  0
 13 12  1  0  0  0  0
 14 13  1  0  0  0  0
 15 14  1  0  0  0  0
 16 15  1  0  0  0  0
 17 16  1  0  0  0  0
 18  7  1  0  0  0  0
 19 18  1  0  0  0  0
 20 19  1  0  0  0  0
 21  8  1  0  0  0  0
M  CHG  2   1  -1   2   1
M  END
> <#>
150

> <PLATE>
LAT002

> <ROW>
F

> <COL>
10

> <COORD>
F10

> <LATID>
LAT002F10

> <Supplier>
Microsource

> <Suplier_CAT#>
01503200

> <Name>
Cetrimonium Bromide

> <Concentration_(mM)>
2.5

> <IC50_(µM)>
15

> <Yeast_Active?>
+

> <Pubchem_CID>
5974

> <Description>
Antiseptic

$$$$
