
  -ISIS-  08130814242D

 20 21  0  0  0  0  0  0  0  0999 V2000
   -0.6333    0.8208    0.0000 C   0  0  0  0  0  0  0  0  0  0  0  0
   -1.0958    0.0208    0.0000 N   0  0  0  0  0  0  0  0  0  0  0  0
    0.7667    0.0208    0.0000 N   0  0  0  0  0  0  0  0  0  0  0  0
   -2.0208    0.0208    0.0000 C   0  0  0  0  0  0  0  0  0  0  0  0
   -1.1000    1.6208    0.0000 O   0  0  0  0  0  0  0  0  0  0  0  0
   -2.4958   -0.7875    0.0000 C   0  0  0  0  0  0  0  0  0  0  0  0
    0.3000    0.8208    0.0000 O   0  0  0  0  0  0  0  0  0  0  0  0
    1.6875    0.0208    0.0000 C   0  0  0  0  0  0  0  0  0  0  0  0
   -3.4333   -0.7875    0.0000 C   0  0  0  0  0  0  0  0  0  0  0  0
    2.1500    0.8125    0.0000 C   0  0  0  0  0  0  0  0  0  0  0  0
    3.0875    2.4208    0.0000 C   0  0  0  0  0  0  0  0  0  0  0  0
   -3.8958   -1.5875    0.0000 Cl  0  0  0  0  0  0  0  0  0  0  0  0
    3.5542    3.2208    0.0000 F   0  0  0  0  0  0  0  0  0  0  0  0
    2.1542    2.4208    0.0000 C   0  0  0  0  0  0  0  0  0  0  0  0
    3.5500    1.6208    0.0000 C   0  0  0  0  0  0  0  0  0  0  0  0
    1.7000    1.6208    0.0000 C   0  0  0  0  0  0  0  0  0  0  0  0
    3.0792    0.8125    0.0000 C   0  0  0  0  0  0  0  0  0  0  0  0
   -3.4333    0.8333    0.0000 C   0  0  0  0  0  0  0  0  0  0  0  0
   -2.4958    0.8333    0.0000 C   0  0  0  0  0  0  0  0  0  0  0  0
   -3.9000    0.0208    0.0000 C   0  0  0  0  0  0  0  0  0  0  0  0
  2  1  1  0  0  0  0
  3  7  1  0  0  0  0
  4  2  1  0  0  0  0
  5  1  2  0  0  0  0
  6  4  1  0  0  0  0
  7  1  1  0  0  0  0
  8  3  2  0  0  0  0
  9  6  2  0  0  0  0
 10  8  1  0  0  0  0
 11 15  2  0  0  0  0
 12  9  1  0  0  0  0
 13 11  1  0  0  0  0
 14 16  2  0  0  0  0
 15 17  1  0  0  0  0
 16 10  1  0  0  0  0
 17 10  2  0  0  0  0
 18 19  1  0  0  0  0
 19  4  2  0  0  0  0
 20 18  2  0  0  0  0
 20  9  1  0  0  0  0
 11 14  1  0  0  0  0
M  END
> <#>
1752

> <PLATE>
LAT022

> <ROW>
H

> <COL>
10

> <COORD>
H10

> <LATID>
LAT022H10

> <Supplier>
Chembridge

> <Suplier_CAT#>
5561626

> <Name>
Novel

> <Sec_Name>
169_F11

> <Concentration_(mM)>
2.5

> <IC50_(µM)>
100

> <Yeast_Active?>
-

> <Pubchem_CID>
872044

$$$$
