
  -ISIS-  08130814242D

 40 38  0  0  0  0  0  0  0  0999 V2000
   11.1292   -6.4083    0.0000 C   0  0  0  0  0  0  0  0  0  0  0  0
   11.8417   -5.9958    0.0000 C   0  0  0  0  0  0  0  0  0  0  0  0
    1.8667   -6.8458    0.0000 C   0  0  0  0  0  0  0  0  0  0  0  0
    1.1542   -6.4375    0.0000 C   0  0  3  0  0  0  0  0  0  0  0  0
    2.5792   -6.4333    0.0000 C   0  0  3  0  0  0  0  0  0  0  0  0
   10.4167   -6.8125    0.0000 C   0  0  0  0  0  0  0  0  0  0  0  0
    1.1542   -5.6125    0.0000 O   0  0  0  0  0  0  0  0  0  0  0  0
    2.5792   -5.6083    0.0000 O   0  0  0  0  0  0  0  0  0  0  0  0
   -0.2708   -6.4375    0.0000 O   0  0  0  0  0  0  0  0  0  0  0  0
    0.4417   -6.8500    0.0000 C   0  0  0  0  0  0  0  0  0  0  0  0
    3.2917   -6.8458    0.0000 C   0  0  0  0  0  0  0  0  0  0  0  0
    9.7042   -6.4125    0.0000 C   0  0  0  0  0  0  0  0  0  0  0  0
    4.0042   -6.4333    0.0000 C   0  0  0  0  0  0  0  0  0  0  0  0
    4.7167   -6.8375    0.0000 C   0  0  0  0  0  0  0  0  0  0  0  0
    5.4292   -6.4250    0.0000 C   0  0  0  0  0  0  0  0  0  0  0  0
    6.1417   -6.8333    0.0000 C   0  0  0  0  0  0  0  0  0  0  0  0
    6.8542   -6.4208    0.0000 C   0  0  0  0  0  0  0  0  0  0  0  0
    7.5667   -6.8333    0.0000 C   0  0  0  0  0  0  0  0  0  0  0  0
    8.2792   -6.4208    0.0000 C   0  0  0  0  0  0  0  0  0  0  0  0
    8.9917   -6.8250    0.0000 C   0  0  0  0  0  0  0  0  0  0  0  0
   11.0958   -3.7833    0.0000 C   0  0  0  0  0  0  0  0  0  0  0  0
   11.8083   -3.3708    0.0000 C   0  0  0  0  0  0  0  0  0  0  0  0
    1.8333   -4.2208    0.0000 C   0  0  0  0  0  0  0  0  0  0  0  0
    1.1208   -3.8125    0.0000 C   0  0  3  0  0  0  0  0  0  0  0  0
    2.5458   -3.8083    0.0000 C   0  0  3  0  0  0  0  0  0  0  0  0
   10.3833   -4.1875    0.0000 C   0  0  0  0  0  0  0  0  0  0  0  0
    1.1208   -2.9875    0.0000 O   0  0  0  0  0  0  0  0  0  0  0  0
    2.5458   -2.9833    0.0000 O   0  0  0  0  0  0  0  0  0  0  0  0
   -0.3042   -3.8125    0.0000 O   0  0  0  0  0  0  0  0  0  0  0  0
    0.4083   -4.2250    0.0000 C   0  0  0  0  0  0  0  0  0  0  0  0
    3.2583   -4.2208    0.0000 C   0  0  0  0  0  0  0  0  0  0  0  0
    9.6708   -3.7875    0.0000 C   0  0  0  0  0  0  0  0  0  0  0  0
    3.9708   -3.8083    0.0000 C   0  0  0  0  0  0  0  0  0  0  0  0
    4.6833   -4.2125    0.0000 C   0  0  0  0  0  0  0  0  0  0  0  0
    5.3958   -3.8000    0.0000 C   0  0  0  0  0  0  0  0  0  0  0  0
    6.1083   -4.2083    0.0000 C   0  0  0  0  0  0  0  0  0  0  0  0
    6.8208   -3.7958    0.0000 C   0  0  0  0  0  0  0  0  0  0  0  0
    7.5333   -4.2083    0.0000 C   0  0  0  0  0  0  0  0  0  0  0  0
    8.2458   -3.7958    0.0000 C   0  0  0  0  0  0  0  0  0  0  0  0
    8.9583   -4.2000    0.0000 C   0  0  0  0  0  0  0  0  0  0  0  0
 20 12  1  0  0  0  0
  2  1  3  0  0  0  0
  3  5  1  0  0  0  0
  4  3  1  0  0  0  0
  5 11  1  0  0  0  0
  6  1  1  0  0  0  0
  7  4  1  0  0  0  0
  8  5  1  0  0  0  0
  9 10  1  0  0  0  0
 10  4  1  0  0  0  0
 11 13  1  0  0  0  0
 12  6  1  0  0  0  0
 13 14  1  0  0  0  0
 14 15  1  0  0  0  0
 15 16  1  0  0  0  0
 16 17  1  0  0  0  0
 17 18  1  0  0  0  0
 18 19  1  0  0  0  0
 19 20  1  0  0  0  0
 38 39  1  0  0  0  0
 39 40  1  0  0  0  0
 40 32  1  0  0  0  0
 22 21  2  0  0  0  0
 23 25  1  0  0  0  0
 24 23  1  0  0  0  0
 25 31  1  0  0  0  0
 26 21  1  0  0  0  0
 27 24  1  0  0  0  0
 28 25  1  0  0  0  0
 29 30  1  0  0  0  0
 30 24  1  0  0  0  0
 31 33  1  0  0  0  0
 32 26  1  0  0  0  0
 33 34  1  0  0  0  0
 34 35  1  0  0  0  0
 35 36  1  0  0  0  0
 36 37  1  0  0  0  0
 37 38  1  0  0  0  0
M  END
> <#>
18

> <PLATE>
LAT001

> <ROW>
B

> <COL>
4

> <COORD>
B04

> <LATID>
LAT001B04

> <Supplier>
Microsource

> <Suplier_CAT#>
00211552

> <Name>
Avocatin B

> <Concentration_(mM)>
2.5

> <IC50_(µM)>
7.3

> <Yeast_Active?>
+

> <Pubchem_CID>
6710748

> <Source>
Persea spp

$$$$
