
  -ISIS-  08130814242D

 20 22  0  0  0  0  0  0  0  0999 V2000
   -2.1500   -0.9875    0.0000 C   0  0  0  0  0  0  0  0  0  0  0  0
   -3.0958   -1.0000    0.0000 C   0  0  0  0  0  0  0  0  0  0  0  0
   -0.7500   -0.1875    0.0000 N   0  0  0  0  0  0  0  0  0  0  0  0
   -3.6125   -1.7500    0.0000 O   0  0  0  0  0  0  0  0  0  0  0  0
   -1.6708   -0.1792    0.0000 N   0  0  0  0  0  0  0  0  0  0  0  0
    1.1375   -0.2000    0.0000 C   0  0  0  0  0  0  0  0  0  0  0  0
   -1.6833   -1.8000    0.0000 O   0  0  0  0  0  0  0  0  0  0  0  0
   -3.6125   -0.2500    0.0000 C   0  0  0  0  0  0  0  0  0  0  0  0
   -4.5333   -1.4792    0.0000 C   0  0  0  0  0  0  0  0  0  0  0  0
    0.6667    0.6208    0.0000 C   0  0  0  0  0  0  0  0  0  0  0  0
   -4.5333   -0.5375    0.0000 C   0  0  0  0  0  0  0  0  0  0  0  0
   -0.2708    0.6208    0.0000 C   0  0  0  0  0  0  0  0  0  0  0  0
    2.0875   -0.2000    0.0000 C   0  0  0  0  0  0  0  0  0  0  0  0
    2.0792    1.4458    0.0000 C   0  0  0  0  0  0  0  0  0  0  0  0
    1.1375    1.4458    0.0000 C   0  0  0  0  0  0  0  0  0  0  0  0
    0.6667   -1.0042    0.0000 C   0  0  0  0  0  0  0  0  0  0  0  0
    2.5500    0.6208    0.0000 C   0  0  0  0  0  0  0  0  0  0  0  0
    2.5500   -1.0042    0.0000 C   0  0  0  0  0  0  0  0  0  0  0  0
    1.1375   -1.8167    0.0000 C   0  0  0  0  0  0  0  0  0  0  0  0
    2.0792   -1.8167    0.0000 C   0  0  0  0  0  0  0  0  0  0  0  0
  2  1  1  0  0  0  0
  3  5  1  0  0  0  0
  4  2  1  0  0  0  0
  5  1  1  0  0  0  0
  6 10  1  0  0  0  0
  7  1  2  0  0  0  0
  8  2  2  0  0  0  0
  9  4  1  0  0  0  0
 10 12  1  0  0  0  0
 11  8  1  0  0  0  0
 12  3  2  0  0  0  0
 13  6  2  0  0  0  0
 14 15  1  0  0  0  0
 15 10  2  0  0  0  0
 16  6  1  0  0  0  0
 17 14  2  0  0  0  0
 18 13  1  0  0  0  0
 19 16  2  0  0  0  0
 20 19  1  0  0  0  0
  9 11  2  0  0  0  0
 13 17  1  0  0  0  0
 20 18  2  0  0  0  0
M  END
> <#>
681

> <PLATE>
LAT009

> <ROW>
A

> <COL>
7

> <COORD>
A07

> <LATID>
LAT009A07

> <Supplier>
Chembridge

> <Suplier_CAT#>
5549111

> <Name>
Novel

> <Sec_Name>
162_D11

> <Concentration_(mM)>
2.5

> <IC50_(µM)>
17

> <Yeast_Active?>
-

> <Pubchem_CID>
760132

$$$$
