
  -ISIS-  08130814242D

 21 23  0  0  0  0  0  0  0  0999 V2000
    4.7696    3.0155    0.0000 C   0  0  0  0  0  0  0  0  0  0  0  0
    4.7696    1.7655    0.0000 N   0  0  3  0  0  0  0  0  0  0  0  0
    5.8521    1.1405    0.0000 C   0  0  0  0  0  0  0  0  0  0  0  0
    3.6871    1.1405    0.0000 C   0  0  0  0  0  0  0  0  0  0  0  0
    2.6045    1.7655    0.0000 C   0  0  0  0  0  0  0  0  0  0  0  0
    1.5220    1.1405    0.0000 C   0  0  0  0  0  0  0  0  0  0  0  0
    1.5220   -0.1095    0.0000 N   0  0  3  0  0  0  0  0  0  0  0  0
    2.6045   -0.7345    0.0000 C   0  0  0  0  0  0  0  0  0  0  0  0
    3.6871   -0.1095    0.0000 C   0  0  0  0  0  0  0  0  0  0  0  0
    4.7696   -0.7345    0.0000 C   0  0  0  0  0  0  0  0  0  0  0  0
    4.7696   -1.9845    0.0000 C   0  0  0  0  0  0  0  0  0  0  0  0
    3.6871   -2.6095    0.0000 C   0  0  0  0  0  0  0  0  0  0  0  0
    2.6045   -1.9845    0.0000 C   0  0  0  0  0  0  0  0  0  0  0  0
    1.5220   -2.6095    0.0000 S   0  0  0  0  0  0  0  0  0  0  0  0
    0.4395   -1.9845    0.0000 C   0  0  0  0  0  0  0  0  0  0  0  0
    0.4395   -0.7345    0.0000 C   0  0  0  0  0  0  0  0  0  0  0  0
   -0.6431   -0.1095    0.0000 C   0  0  0  0  0  0  0  0  0  0  0  0
   -1.7256   -0.7345    0.0000 C   0  0  0  0  0  0  0  0  0  0  0  0
   -1.7256   -1.9845    0.0000 C   0  0  0  0  0  0  0  0  0  0  0  0
   -0.6431   -2.6095    0.0000 C   0  0  0  0  0  0  0  0  0  0  0  0
   -2.8081   -0.1095    0.0000 Cl  0  0  0  0  0  0  0  0  0  0  0  0
  1  2  1  0  0  0  0
  2  3  1  0  0  0  0
  2  4  1  0  0  0  0
  4  5  1  0  0  0  0
  5  6  1  0  0  0  0
  6  7  1  0  0  0  0
  7  8  1  0  0  0  0
  8  9  2  0  0  0  0
  9 10  1  0  0  0  0
 10 11  2  0  0  0  0
 11 12  1  0  0  0  0
 12 13  2  0  0  0  0
  8 13  1  0  0  0  0
 13 14  1  0  0  0  0
 14 15  1  0  0  0  0
 15 16  2  0  0  0  0
  7 16  1  0  0  0  0
 16 17  1  0  0  0  0
 17 18  2  0  0  0  0
 18 19  1  0  0  0  0
 19 20  2  0  0  0  0
 15 20  1  0  0  0  0
 18 21  1  0  0  0  0
M  END
> <#>
332

> <PLATE>
LAT005

> <ROW>
D

> <COL>
3

> <COORD>
D03

> <LATID>
LAT005D03

> <Supplier>
ICN

> <Suplier_CAT#>
215921

> <Name>
Chlorpromazine

> <Concentration_(mM)>
2.5

> <IC50_(µM)>
>100

> <Yeast_Active?>
-

> <Pubchem_CID>
2726

> <Comment>
A.K.A. Thorazine

$$$$
