
  -ISIS-  08130814242D

 19 21  0  0  0  0  0  0  0  0999 V2000
    2.4542   -3.0792    0.0000 C   0  0  3  0  0  0  0  0  0  0  0  0
    0.8542   -4.7000    0.0000 C   0  0  0  0  0  0  0  0  0  0  0  0
   -1.3708   -4.2167    0.0000 S   0  0  0  0  0  0  0  0  0  0  0  0
    1.0875   -6.9667    0.0000 C   0  0  0  0  0  0  0  0  0  0  0  0
   -2.5208   -6.1875    0.0000 C   0  0  0  0  0  0  0  0  0  0  0  0
    4.6542   -3.6500    0.0000 C   0  0  0  0  0  0  0  0  0  0  0  0
    3.0375   -0.8667    0.0000 C   0  0  0  0  0  0  0  0  0  0  0  0
   -1.0000   -7.9000    0.0000 C   0  0  0  0  0  0  0  0  0  0  0  0
    0.4375   -1.2000    0.0000 O   0  0  0  0  0  0  0  0  0  0  0  0
    6.2542   -2.0292    0.0000 C   0  0  0  0  0  0  0  0  0  0  0  0
    5.2542   -5.8500    0.0000 C   0  0  0  0  0  0  0  0  0  0  0  0
    5.2292   -0.2667    0.0000 C   0  0  0  0  0  0  0  0  0  0  0  0
    1.4167    0.7125    0.0000 C   0  0  0  0  0  0  0  0  0  0  0  0
    7.4542   -6.4292    0.0000 C   0  0  0  0  0  0  0  0  0  0  0  0
    5.8167    1.9125    0.0000 C   0  0  0  0  0  0  0  0  0  0  0  0
    2.0000    2.9208    0.0000 C   0  0  0  0  0  0  0  0  0  0  0  0
    8.4542   -2.6042    0.0000 C   0  0  0  0  0  0  0  0  0  0  0  0
    9.0542   -4.8042    0.0000 C   0  0  0  0  0  0  0  0  0  0  0  0
    4.2000    3.5208    0.0000 C   0  0  0  0  0  0  0  0  0  0  0  0
  2  1  1  0  0  0  0
  3  2  1  0  0  0  0
  4  2  2  0  0  0  0
  5  3  1  0  0  0  0
  6  1  1  0  0  0  0
  7  1  1  0  0  0  0
  8  4  1  0  0  0  0
  9  1  1  0  0  0  0
 10  6  2  0  0  0  0
 11  6  1  0  0  0  0
 12  7  1  0  0  0  0
 13  7  2  0  0  0  0
 14 11  2  0  0  0  0
 15 12  2  0  0  0  0
 16 13  1  0  0  0  0
 17 10  1  0  0  0  0
 18 14  1  0  0  0  0
 19 16  2  0  0  0  0
  5  8  2  0  0  0  0
 15 19  1  0  0  0  0
 18 17  2  0  0  0  0
M  END
> <#>
995

> <PLATE>
LAT013

> <ROW>
C

> <COL>
6

> <COORD>
C06

> <LATID>
LAT013C06

> <Supplier>
Chembridge

> <Suplier_CAT#>
5169161

> <Name>
Novel

> <Concentration_(mM)>
2.5

> <IC50_(µM)>
90

> <Yeast_Active?>
-

> <Pubchem_CID>
315631

$$$$
