
  -ISIS-  08130814242D

 24 26  0  0  0  0  0  0  0  0999 V2000
   -1.2708    1.0458    0.0000 C   0  0  0  0  0  0  0  0  0  0  0  0
   -1.2708    1.9208    0.0000 C   0  0  0  0  0  0  0  0  0  0  0  0
   -2.0500    0.6000    0.0000 C   0  0  0  0  0  0  0  0  0  0  0  0
   -2.8125    1.9208    0.0000 C   0  0  3  0  0  0  0  0  0  0  0  0
   -2.0500    2.3625    0.0000 C   0  0  0  0  0  0  0  0  0  0  0  0
   -2.8125    1.0458    0.0000 C   0  0  0  0  0  0  0  0  0  0  0  0
   -0.4708    0.6208    0.0000 C   0  0  0  0  0  0  0  0  0  0  0  0
    1.8500    1.1458    0.0000 C   0  0  0  0  0  0  0  0  0  0  0  0
   -0.4708    2.3458    0.0000 O   0  0  0  0  0  0  0  0  0  0  0  0
   -2.0500   -0.3000    0.0000 O   0  0  0  0  0  0  0  0  0  0  0  0
    2.6292    0.7458    0.0000 C   0  0  0  0  0  0  0  0  0  0  0  0
    0.3042    1.1000    0.0000 N   0  0  0  0  0  0  0  0  0  0  0  0
   -3.5958    2.3625    0.0000 C   0  0  0  0  0  0  0  0  0  0  0  0
    2.6875   -0.1542    0.0000 Cl  0  0  0  0  0  0  0  0  0  0  0  0
    1.0875    0.6833    0.0000 C   0  0  0  0  0  0  0  0  0  0  0  0
    1.8042    2.0208    0.0000 C   0  0  0  0  0  0  0  0  0  0  0  0
    3.3667    1.2208    0.0000 C   0  0  0  0  0  0  0  0  0  0  0  0
   -4.3500    1.9208    0.0000 C   0  0  0  0  0  0  0  0  0  0  0  0
   -3.5958    3.2708    0.0000 C   0  0  0  0  0  0  0  0  0  0  0  0
    2.5500    2.5000    0.0000 C   0  0  0  0  0  0  0  0  0  0  0  0
    3.3292    2.1000    0.0000 C   0  0  0  0  0  0  0  0  0  0  0  0
   -5.1333    2.3833    0.0000 C   0  0  0  0  0  0  0  0  0  0  0  0
   -4.3708    3.7083    0.0000 C   0  0  0  0  0  0  0  0  0  0  0  0
   -5.1333    3.2458    0.0000 C   0  0  0  0  0  0  0  0  0  0  0  0
  2  1  1  0  0  0  0
  3  1  1  0  0  0  0
  4  6  1  0  0  0  0
  5  2  1  0  0  0  0
  6  3  1  0  0  0  0
  7  1  2  0  0  0  0
  8 15  1  0  0  0  0
  9  2  2  0  0  0  0
 10  3  2  0  0  0  0
 11  8  1  0  0  0  0
 12  7  1  0  0  0  0
 13  4  1  0  0  0  0
 14 11  1  0  0  0  0
 15 12  1  0  0  0  0
 16  8  2  0  0  0  0
 17 11  2  0  0  0  0
 18 13  2  0  0  0  0
 19 13  1  0  0  0  0
 20 16  1  0  0  0  0
 21 20  2  0  0  0  0
 22 18  1  0  0  0  0
 23 19  2  0  0  0  0
 24 23  1  0  0  0  0
  5  4  1  0  0  0  0
 17 21  1  0  0  0  0
 24 22  2  0  0  0  0
M  END
> <#>
867

> <PLATE>
LAT011

> <ROW>
C

> <COL>
10

> <COORD>
C10

> <LATID>
LAT011C10

> <Supplier>
Chembridge

> <Suplier_CAT#>
5666619

> <Name>
Novel

> <Sec_Name>
209_F07

> <Concentration_(mM)>
2.5

> <IC50_(µM)>
8

> <Yeast_Active?>
-

> <Pubchem_CID>
867718

$$$$
