
  -ISIS-  08130814242D

 18 19  0  0  0  0  0  0  0  0999 V2000
   -1.4500    0.2625    0.0000 C   0  0  0  0  0  0  0  0  0  0  0  0
   -1.4500    1.2000    0.0000 C   0  0  0  0  0  0  0  0  0  0  0  0
   -2.2625    1.6708    0.0000 C   0  0  0  0  0  0  0  0  0  0  0  0
   -0.6458   -0.2000    0.0000 C   0  0  0  0  0  0  0  0  0  0  0  0
   -2.2625   -0.2000    0.0000 C   0  0  0  0  0  0  0  0  0  0  0  0
   -3.0708    1.2000    0.0000 C   0  0  0  0  0  0  0  0  0  0  0  0
    0.1500    0.2625    0.0000 C   0  0  0  0  0  0  0  0  0  0  0  0
   -0.6500   -1.0000    0.0000 O   0  0  0  0  0  0  0  0  0  0  0  0
   -3.0708    0.2625    0.0000 C   0  0  0  0  0  0  0  0  0  0  0  0
   -2.2500    2.3208    0.0000 O   0  0  0  0  0  0  0  0  0  0  0  0
   -0.6458    1.6708    0.0000 O   0  0  0  0  0  0  0  0  0  0  0  0
    1.1042   -0.1500    0.0000 C   0  0  0  0  0  0  0  0  0  0  0  0
   -3.9458    1.6500    0.0000 O   0  0  0  0  0  0  0  0  0  0  0  0
    2.0042    0.4125    0.0000 C   0  0  0  0  0  0  0  0  0  0  0  0
    1.2000   -1.0167    0.0000 C   0  0  0  0  0  0  0  0  0  0  0  0
    2.0042   -1.4500    0.0000 C   0  0  0  0  0  0  0  0  0  0  0  0
    2.7667   -0.0500    0.0000 C   0  0  0  0  0  0  0  0  0  0  0  0
    2.8000   -0.9542    0.0000 C   0  0  0  0  0  0  0  0  0  0  0  0
  2  1  2  0  0  0  0
  3  2  1  0  0  0  0
  4  1  1  0  0  0  0
  5  1  1  0  0  0  0
  6  9  1  0  0  0  0
  7  4  1  0  0  0  0
  8  4  2  0  0  0  0
  9  5  2  0  0  0  0
 10  3  1  0  0  0  0
 11  2  1  0  0  0  0
 12  7  1  0  0  0  0
 13  6  1  0  0  0  0
 14 12  2  0  0  0  0
 15 12  1  0  0  0  0
 16 15  2  0  0  0  0
 17 14  1  0  0  0  0
 18 16  1  0  0  0  0
  6  3  2  0  0  0  0
 17 18  2  0  0  0  0
M  END
> <#>
1282

> <PLATE>
LAT017

> <ROW>
B

> <COL>
2

> <COORD>
B02

> <LATID>
LAT017B02

> <Supplier>
Chembridge

> <Suplier_CAT#>
6679187

> <Name>
Novel

> <Concentration_(mM)>
2.5

> <IC50_(µM)>
>100

> <Yeast_Active?>
-

> <Pubchem_CID>
805465

$$$$
