
  -ISIS-  08130814242D

 21 22  0  0  0  0  0  0  0  0999 V2000
   -3.9208   -0.8042    0.0000 N   0  3  0  0  0  0  0  0  0  0  0  0
   -2.9833   -0.8042    0.0000 C   0  0  0  0  0  0  0  0  0  0  0  0
   -2.5000   -1.6500    0.0000 C   0  0  0  0  0  0  0  0  0  0  0  0
   -0.1625   -0.8042    0.0000 C   0  0  0  0  0  0  0  0  0  0  0  0
   -1.1000   -0.8042    0.0000 C   0  0  0  0  0  0  0  0  0  0  0  0
   -1.5625   -1.6292    0.0000 C   0  0  0  0  0  0  0  0  0  0  0  0
   -2.5208    0.0125    0.0000 C   0  0  0  0  0  0  0  0  0  0  0  0
   -4.4083    0.0333    0.0000 O   0  5  0  0  0  0  0  0  0  0  0  0
   -4.4083   -1.6042    0.0000 O   0  0  0  0  0  0  0  0  0  0  0  0
   -1.5625    0.0125    0.0000 C   0  0  0  0  0  0  0  0  0  0  0  0
    2.6792   -2.4500    0.0000 C   0  0  0  0  0  0  0  0  0  0  0  0
    0.3167    0.0125    0.0000 O   0  0  0  0  0  0  0  0  0  0  0  0
    0.3167   -1.6292    0.0000 N   0  0  0  0  0  0  0  0  0  0  0  0
    3.1542   -1.6292    0.0000 C   0  0  0  0  0  0  0  0  0  0  0  0
    1.2542   -1.6500    0.0000 C   0  0  0  0  0  0  0  0  0  0  0  0
   -2.9625   -2.4875    0.0000 C   0  0  0  0  0  0  0  0  0  0  0  0
    1.7375   -2.4500    0.0000 C   0  0  0  0  0  0  0  0  0  0  0  0
    3.1542   -3.2667    0.0000 C   0  0  0  0  0  0  0  0  0  0  0  0
    4.1000   -1.6292    0.0000 C   0  0  0  0  0  0  0  0  0  0  0  0
    4.1000   -3.2667    0.0000 C   0  0  0  0  0  0  0  0  0  0  0  0
    4.5792   -2.4500    0.0000 C   0  0  0  0  0  0  0  0  0  0  0  0
  2  1  1  0  0  0  0
  3  2  1  0  0  0  0
  4  5  1  0  0  0  0
  5 10  2  0  0  0  0
  6  3  2  0  0  0  0
  7  2  2  0  0  0  0
  8  1  1  0  0  0  0
  9  1  2  0  0  0  0
 10  7  1  0  0  0  0
 11 17  1  0  0  0  0
 12  4  2  0  0  0  0
 13  4  1  0  0  0  0
 14 11  2  0  0  0  0
 15 13  1  0  0  0  0
 16  3  1  0  0  0  0
 17 15  1  0  0  0  0
 18 11  1  0  0  0  0
 19 14  1  0  0  0  0
 20 18  1  0  0  0  0
 21 20  1  0  0  0  0
  5  6  1  0  0  0  0
 21 19  1  0  0  0  0
M  CHG  2   1   1   8  -1
M  END
> <#>
1836

> <PLATE>
LAT023

> <ROW>
D

> <COL>
11

> <COORD>
D11

> <LATID>
LAT023D11

> <Supplier>
Chembridge

> <Suplier_CAT#>
5688779

> <Name>
Novel

> <Sec_Name>
220_H05

> <Concentration_(mM)>
2.5

> <IC50_(µM)>
5

> <Yeast_Active?>
-

> <Pubchem_CID>
790942

$$$$
