
  -ISIS-  08130814242D

 22 23  0  0  0  0  0  0  0  0999 V2000
   -0.0125    0.9000    0.0000 C   0  0  0  0  0  0  0  0  0  0  0  0
    1.3292    0.9333    0.0000 N   0  0  0  0  0  0  0  0  0  0  0  0
    3.3292    0.5458    0.0000 C   0  0  0  0  0  0  0  0  0  0  0  0
    2.6667    0.9208    0.0000 C   0  0  0  0  0  0  0  0  0  0  0  0
    0.6667    0.5458    0.0000 N   0  0  0  0  0  0  0  0  0  0  0  0
   -1.3708    0.9000    0.0000 O   0  0  0  0  0  0  0  0  0  0  0  0
   -2.0333    0.5125    0.0000 C   0  0  0  0  0  0  0  0  0  0  0  0
   -0.0125    1.6833    0.0000 O   0  0  0  0  0  0  0  0  0  0  0  0
    3.9875    0.9208    0.0000 C   0  0  0  0  0  0  0  0  0  0  0  0
   -2.0333   -0.2667    0.0000 C   0  0  0  0  0  0  0  0  0  0  0  0
    2.0042    0.5458    0.0000 C   0  0  0  0  0  0  0  0  0  0  0  0
   -0.6958    0.5125    0.0000 C   0  0  0  0  0  0  0  0  0  0  0  0
    2.6667    1.6833    0.0000 C   0  0  0  0  0  0  0  0  0  0  0  0
    4.0000    1.7000    0.0000 C   0  0  0  0  0  0  0  0  0  0  0  0
   -1.4000   -0.6042    0.0000 Br  0  0  0  0  0  0  0  0  0  0  0  0
    3.3292    2.0833    0.0000 C   0  0  0  0  0  0  0  0  0  0  0  0
    3.3375   -0.2167    0.0000 C   0  0  0  0  0  0  0  0  0  0  0  0
   -2.6958    0.9000    0.0000 C   0  0  0  0  0  0  0  0  0  0  0  0
   -2.6958   -0.6542    0.0000 C   0  0  0  0  0  0  0  0  0  0  0  0
    4.6667    2.0833    0.0000 C   0  0  0  0  0  0  0  0  0  0  0  0
   -3.3708   -0.2667    0.0000 C   0  0  0  0  0  0  0  0  0  0  0  0
   -3.3708    0.5125    0.0000 C   0  0  0  0  0  0  0  0  0  0  0  0
  2  5  1  0  0  0  0
  3  4  2  0  0  0  0
  4 11  1  0  0  0  0
  5  1  1  0  0  0  0
  6 12  1  0  0  0  0
  7  6  1  0  0  0  0
  8  1  2  0  0  0  0
  9  3  1  0  0  0  0
 10  7  2  0  0  0  0
 11  2  2  0  0  0  0
 12  1  1  0  0  0  0
 13  4  1  0  0  0  0
 14 16  1  0  0  0  0
 15 10  1  0  0  0  0
 16 13  2  0  0  0  0
 17  3  1  0  0  0  0
 18  7  1  0  0  0  0
 19 10  1  0  0  0  0
 20 14  1  0  0  0  0
 21 22  1  0  0  0  0
 22 18  2  0  0  0  0
 21 19  2  0  0  0  0
  9 14  2  0  0  0  0
M  END
> <#>
1785

> <PLATE>
LAT023

> <ROW>
A

> <COL>
5

> <COORD>
A05

> <LATID>
LAT023A05

> <Supplier>
Chembridge

> <Suplier_CAT#>
5554099

> <Name>
Novel

> <Sec_Name>
168_A04

> <Concentration_(mM)>
2.5

> <IC50_(µM)>
5

> <Yeast_Active?>
-

> <Pubchem_CID>
1365025

$$$$
