
  -ISIS-  08130814242D

 23 24  0  0  0  0  0  0  0  0999 V2000
    1.2375    1.4208    0.0000 N   0  3  0  0  0  0  0  0  0  0  0  0
    0.2042    1.9708    0.0000 C   0  0  0  0  0  0  0  0  0  0  0  0
    0.8875    1.9708    0.0000 C   0  0  0  0  0  0  0  0  0  0  0  0
   -0.1458    1.3958    0.0000 C   0  0  0  0  0  0  0  0  0  0  0  0
   -1.1208    1.9958    0.0000 N   0  0  0  0  0  0  0  0  0  0  0  0
    0.9875    0.8000    0.0000 O   0  5  0  0  0  0  0  0  0  0  0  0
   -2.7333    2.5833    0.0000 C   0  0  0  0  0  0  0  0  0  0  0  0
    1.8875    1.4125    0.0000 O   0  0  0  0  0  0  0  0  0  0  0  0
   -2.0708    2.5708    0.0000 C   0  0  0  0  0  0  0  0  0  0  0  0
   -1.7625    1.9958    0.0000 C   0  0  0  0  0  0  0  0  0  0  0  0
   -0.7958    1.4125    0.0000 N   0  0  0  0  0  0  0  0  0  0  0  0
    0.1792    0.8125    0.0000 O   0  0  0  0  0  0  0  0  0  0  0  0
   -1.7333    3.1125    0.0000 Br  0  0  0  0  0  0  0  0  0  0  0  0
   -3.0625    3.1458    0.0000 C   0  0  0  0  0  0  0  0  0  0  0  0
   -0.1000    2.5500    0.0000 C   0  0  0  0  0  0  0  0  0  0  0  0
    1.2167    2.5208    0.0000 C   0  0  0  0  0  0  0  0  0  0  0  0
   -2.7000    3.7208    0.0000 C   0  0  0  0  0  0  0  0  0  0  0  0
   -3.7208    3.1708    0.0000 C   0  0  0  0  0  0  0  0  0  0  0  0
    0.2375    3.1125    0.0000 C   0  0  0  0  0  0  0  0  0  0  0  0
    0.9000    3.0833    0.0000 C   0  0  0  0  0  0  0  0  0  0  0  0
   -3.0333    4.2792    0.0000 C   0  0  0  0  0  0  0  0  0  0  0  0
   -4.0458    3.7458    0.0000 C   0  0  0  0  0  0  0  0  0  0  0  0
   -3.6958    4.2917    0.0000 C   0  0  0  0  0  0  0  0  0  0  0  0
  2  3  1  0  0  0  0
  3  1  1  0  0  0  0
  4  2  1  0  0  0  0
  5 11  1  0  0  0  0
  6  1  1  0  0  0  0
  7  9  2  0  0  0  0
  8  1  2  0  0  0  0
  9 10  1  0  0  0  0
 10  5  2  0  0  0  0
 11  4  1  0  0  0  0
 12  4  2  0  0  0  0
 13  9  1  0  0  0  0
 14  7  1  0  0  0  0
 15  2  2  0  0  0  0
 16  3  2  0  0  0  0
 17 14  1  0  0  0  0
 18 14  2  0  0  0  0
 19 20  2  0  0  0  0
 20 16  1  0  0  0  0
 21 17  2  0  0  0  0
 22 18  1  0  0  0  0
 23 22  2  0  0  0  0
 15 19  1  0  0  0  0
 21 23  1  0  0  0  0
M  CHG  2   1   1   6  -1
M  END
> <#>
651

> <PLATE>
LAT009

> <ROW>
C

> <COL>
3

> <COORD>
C03

> <LATID>
LAT009C03

> <Supplier>
Chembridge

> <Suplier_CAT#>
5526498

> <Name>
Novel

> <Sec_Name>
147_B09

> <Concentration_(mM)>
2.5

> <IC50_(µM)>
30

> <Yeast_Active?>
-

> <Pubchem_CID>
1367857

$$$$
