
  -ISIS-  08130814242D

 24 26  0  0  0  0  0  0  0  0999 V2000
   -2.4833    0.2458    0.0000 C   0  0  0  0  0  0  0  0  0  0  0  0
   -1.3208    0.8958    0.0000 N   0  0  0  0  0  0  0  0  0  0  0  0
   -1.7125    0.2333    0.0000 N   0  0  0  0  0  0  0  0  0  0  0  0
   -2.8958   -0.4292    0.0000 O   0  0  0  0  0  0  0  0  0  0  0  0
   -3.5958    2.3000    0.0000 N   0  0  0  0  0  0  0  0  0  0  0  0
   -2.8458    0.9208    0.0000 C   0  0  0  0  0  0  0  0  0  0  0  0
   -0.5000    3.6125    0.0000 O   0  0  0  0  0  0  0  0  0  0  0  0
   -0.1333    2.9208    0.0000 C   0  0  0  0  0  0  0  0  0  0  0  0
   -0.5333    0.8958    0.0000 C   0  0  0  0  0  0  0  0  0  0  0  0
   -0.5125    2.2333    0.0000 C   0  0  0  0  0  0  0  0  0  0  0  0
   -0.1208    1.5500    0.0000 C   0  0  0  0  0  0  0  0  0  0  0  0
   -1.3000    3.6083    0.0000 C   0  0  0  0  0  0  0  0  0  0  0  0
    1.0792    2.2208    0.0000 C   0  0  0  0  0  0  0  0  0  0  0  0
   -2.8208    2.2833    0.0000 C   0  0  0  0  0  0  0  0  0  0  0  0
   -3.9958    1.6333    0.0000 C   0  0  0  0  0  0  0  0  0  0  0  0
    0.6875    2.9333    0.0000 C   0  0  0  0  0  0  0  0  0  0  0  0
   -3.6208    0.9500    0.0000 C   0  0  0  0  0  0  0  0  0  0  0  0
   -2.4458    1.6000    0.0000 C   0  0  0  0  0  0  0  0  0  0  0  0
    0.6667    1.5500    0.0000 C   0  0  0  0  0  0  0  0  0  0  0  0
   -1.7000    4.2792    0.0000 C   0  0  0  0  0  0  0  0  0  0  0  0
   -1.6833    2.9458    0.0000 C   0  0  0  0  0  0  0  0  0  0  0  0
   -2.4708    2.9333    0.0000 C   0  0  0  0  0  0  0  0  0  0  0  0
   -2.4958    4.2542    0.0000 C   0  0  0  0  0  0  0  0  0  0  0  0
   -2.8833    3.5958    0.0000 C   0  0  0  0  0  0  0  0  0  0  0  0
  2  3  1  0  0  0  0
  3  1  1  0  0  0  0
  4  1  2  0  0  0  0
  5 14  2  0  0  0  0
  6  1  1  0  0  0  0
  7  8  1  0  0  0  0
  8 10  2  0  0  0  0
  9  2  2  0  0  0  0
 10 11  1  0  0  0  0
 11  9  1  0  0  0  0
 12  7  1  0  0  0  0
 13 19  1  0  0  0  0
 14 18  1  0  0  0  0
 15 17  2  0  0  0  0
 16 13  2  0  0  0  0
 17  6  1  0  0  0  0
 18  6  2  0  0  0  0
 19 11  2  0  0  0  0
 20 12  2  0  0  0  0
 21 12  1  0  0  0  0
 22 21  2  0  0  0  0
 23 20  1  0  0  0  0
 24 22  1  0  0  0  0
 15  5  1  0  0  0  0
  8 16  1  0  0  0  0
 24 23  2  0  0  0  0
M  END
> <#>
588

> <PLATE>
LAT008

> <ROW>
D

> <COL>
5

> <COORD>
D05

> <LATID>
LAT008D05

> <Supplier>
Chembridge

> <Suplier_CAT#>
5469959

> <Name>
Novel

> <Sec_Name>
133_C06

> <Concentration_(mM)>
2.5

> <IC50_(µM)>
29

> <Yeast_Active?>
-

> <Pubchem_CID>
772124

$$$$
