
  -ISIS-  08130814242D

 19 20  0  0  0  0  0  0  0  0999 V2000
    1.8875   -0.9000    0.0000 N   0  3  0  0  0  0  0  0  0  0  0  0
    1.4500   -0.1375    0.0000 C   0  0  0  0  0  0  0  0  0  0  0  0
    1.5167   -1.7000    0.0000 O   0  5  0  0  0  0  0  0  0  0  0  0
    2.7542   -0.9542    0.0000 O   0  0  0  0  0  0  0  0  0  0  0  0
   -2.0958    2.9208    0.0000 C   0  0  0  0  0  0  0  0  0  0  0  0
   -1.2125    2.9208    0.0000 C   0  0  0  0  0  0  0  0  0  0  0  0
   -0.7708    2.1458    0.0000 O   0  0  0  0  0  0  0  0  0  0  0  0
    1.8875    0.6208    0.0000 C   0  0  0  0  0  0  0  0  0  0  0  0
    0.5667   -0.1375    0.0000 C   0  0  0  0  0  0  0  0  0  0  0  0
   -2.5500    2.1458    0.0000 C   0  0  0  0  0  0  0  0  0  0  0  0
   -3.4333    2.1458    0.0000 O   0  0  0  0  0  0  0  0  0  0  0  0
    0.1042    2.1458    0.0000 C   0  0  0  0  0  0  0  0  0  0  0  0
    0.5667    1.3833    0.0000 C   0  0  0  0  0  0  0  0  0  0  0  0
    1.4500    1.3833    0.0000 C   0  0  0  0  0  0  0  0  0  0  0  0
    0.1042    0.6208    0.0000 C   0  0  0  0  0  0  0  0  0  0  0  0
   -2.5333    3.6833    0.0000 C   0  0  0  0  0  0  0  0  0  0  0  0
   -0.7708    3.6833    0.0000 C   0  0  0  0  0  0  0  0  0  0  0  0
   -2.0958    4.4375    0.0000 C   0  0  0  0  0  0  0  0  0  0  0  0
   -1.2125    4.4375    0.0000 C   0  0  0  0  0  0  0  0  0  0  0  0
  2  1  1  0  0  0  0
  3  1  1  0  0  0  0
  4  1  2  0  0  0  0
  5  6  2  0  0  0  0
  6  7  1  0  0  0  0
  7 12  1  0  0  0  0
  8  2  2  0  0  0  0
  9  2  1  0  0  0  0
 10  5  1  0  0  0  0
 11 10  2  0  0  0  0
 12 13  1  0  0  0  0
 13 15  1  0  0  0  0
 14  8  1  0  0  0  0
 15  9  2  0  0  0  0
 16  5  1  0  0  0  0
 17  6  1  0  0  0  0
 18 19  1  0  0  0  0
 19 17  2  0  0  0  0
 14 13  2  0  0  0  0
 16 18  2  0  0  0  0
M  CHG  2   1   1   3  -1
M  END
> <#>
1895

> <PLATE>
LAT024

> <ROW>
G

> <COL>
8

> <COORD>
G08

> <LATID>
LAT024G08

> <Supplier>
Chembridge

> <Suplier_CAT#>
5566707

> <Name>
S001 D07

> <Sec_Name>
174_F04

> <Concentration_(mM)>
2.5

> <IC50_(µM)>
100

> <Yeast_Active?>
-

> <Pubchem_CID>
720715

$$$$
