
  -ISIS-  08130814242D

 26 28  0  0  0  0  0  0  0  0999 V2000
   -0.3333   -0.7292    0.0000 C   0  0  0  0  0  0  0  0  0  0  0  0
   -0.3333   -1.5042    0.0000 C   0  0  0  0  0  0  0  0  0  0  0  0
   -1.0125   -0.3292    0.0000 C   0  0  0  0  0  0  0  0  0  0  0  0
   -1.0125   -1.8875    0.0000 N   0  0  0  0  0  0  0  0  0  0  0  0
   -0.9958    0.4500    0.0000 C   0  0  0  0  0  0  0  0  0  0  0  0
    0.3667   -0.3292    0.0000 C   0  0  0  0  0  0  0  0  0  0  0  0
    1.0500    0.0958    0.0000 N   0  0  0  0  0  0  0  0  0  0  0  0
    0.3500   -1.9042    0.0000 S   0  0  0  0  0  0  0  0  0  0  0  0
    2.3667   -1.5500    0.0000 C   0  0  0  0  0  0  0  0  0  0  0  0
    2.3792   -0.7667    0.0000 C   0  0  0  0  0  0  0  0  0  0  0  0
    3.0667   -0.3875    0.0000 C   0  0  0  0  0  0  0  0  0  0  0  0
    1.6875   -1.9292    0.0000 C   0  0  0  0  0  0  0  0  0  0  0  0
   -0.3708    0.9125    0.0000 O   0  0  0  0  0  0  0  0  0  0  0  0
   -1.6958   -0.7042    0.0000 C   0  0  0  0  0  0  0  0  0  0  0  0
   -1.7125   -1.4875    0.0000 C   0  0  0  0  0  0  0  0  0  0  0  0
    3.7292   -0.7875    0.0000 C   0  0  0  0  0  0  0  0  0  0  0  0
   -1.6333    0.8958    0.0000 C   0  0  0  0  0  0  0  0  0  0  0  0
    1.0292   -1.5292    0.0000 C   0  0  0  0  0  0  0  0  0  0  0  0
   -0.6333    1.6333    0.0000 C   0  0  0  0  0  0  0  0  0  0  0  0
    3.0292   -1.9500    0.0000 C   0  0  0  0  0  0  0  0  0  0  0  0
   -1.4125    1.6125    0.0000 C   0  0  0  0  0  0  0  0  0  0  0  0
    1.6667   -2.6875    0.0000 O   0  0  0  0  0  0  0  0  0  0  0  0
    3.7042   -1.5667    0.0000 C   0  0  0  0  0  0  0  0  0  0  0  0
    3.0875    0.3958    0.0000 O   0  0  0  0  0  0  0  0  0  0  0  0
    4.4042   -0.3875    0.0000 O   0  0  0  0  0  0  0  0  0  0  0  0
   -2.4333   -1.8500    0.0000 C   0  0  0  0  0  0  0  0  0  0  0  0
  2  1  2  0  0  0  0
  3  1  1  0  0  0  0
  4  2  1  0  0  0  0
  5  3  1  0  0  0  0
  6  1  1  0  0  0  0
  7  6  3  0  0  0  0
  8  2  1  0  0  0  0
  9 12  1  0  0  0  0
 10  9  1  0  0  0  0
 11 10  2  0  0  0  0
 12 18  1  0  0  0  0
 13  5  1  0  0  0  0
 14  3  2  0  0  0  0
 15 14  1  0  0  0  0
 16 23  2  0  0  0  0
 17  5  2  0  0  0  0
 18  8  1  0  0  0  0
 19 13  1  0  0  0  0
 20  9  2  0  0  0  0
 21 17  1  0  0  0  0
 22 12  2  0  0  0  0
 23 20  1  0  0  0  0
 24 11  1  0  0  0  0
 25 16  1  0  0  0  0
 26 15  1  0  0  0  0
  4 15  2  0  0  0  0
 19 21  2  0  0  0  0
 16 11  1  0  0  0  0
M  END
> <#>
1240

> <PLATE>
LAT016

> <ROW>
H

> <COL>
6

> <COORD>
H06

> <LATID>
LAT016H06

> <Supplier>
Chembridge

> <Suplier_CAT#>
6037974

> <Name>
Novel

> <Concentration_(mM)>
2.5

> <IC50_(µM)>
inactive

> <Yeast_Active?>
-

> <Pubchem_CID>
1121572

$$$$
