
  -ISIS-  08130814242D

 27 28  0  0  0  0  0  0  0  0999 V2000
    3.4792   -3.3292    0.0000 N   0  0  3  0  0  0  0  0  0  0  0  0
    3.3917   -4.1542    0.0000 C   0  0  0  0  0  0  0  0  0  0  0  0
    4.1542   -4.4875    0.0000 N   0  0  0  0  0  0  0  0  0  0  0  0
    4.2917   -3.1542    0.0000 C   0  0  0  0  0  0  0  0  0  0  0  0
    4.7042   -3.8667    0.0000 C   0  0  0  0  0  0  0  0  0  0  0  0
    5.5375   -3.8667    0.0000 C   0  0  0  0  0  0  0  0  0  0  0  0
    4.7042   -2.4375    0.0000 C   0  0  0  0  0  0  0  0  0  0  0  0
    2.8667   -2.7750    0.0000 C   0  0  3  0  0  0  0  0  0  0  0  0
    8.4417   -4.5917    0.0000 N   0  0  0  0  0  0  0  0  0  0  0  0
    6.7792   -3.1542    0.0000 N   0  0  0  0  0  0  0  0  0  0  0  0
    5.9542   -3.1542    0.0000 C   0  0  0  0  0  0  0  0  0  0  0  0
    8.0250   -3.8667    0.0000 C   0  0  0  0  0  0  0  0  0  0  0  0
    5.5375   -2.4375    0.0000 C   0  0  0  0  0  0  0  0  0  0  0  0
    7.1917   -3.8667    0.0000 C   0  0  0  0  0  0  0  0  0  0  0  0
    9.2667   -4.5917    0.0000 C   0  0  0  0  0  0  0  0  0  0  0  0
    3.0417   -1.9542    0.0000 C   0  0  0  0  0  0  0  0  0  0  0  0
    2.0667   -3.0292    0.0000 C   0  0  0  0  0  0  0  0  0  0  0  0
    8.4417   -3.1542    0.0000 C   0  0  0  0  0  0  0  0  0  0  0  0
    9.6875   -3.8667    0.0000 C   0  0  0  0  0  0  0  0  0  0  0  0
    1.4625   -2.4750    0.0000 C   0  0  0  0  0  0  0  0  0  0  0  0
    2.4167   -1.4042    0.0000 C   0  0  0  0  0  0  0  0  0  0  0  0
    9.2667   -3.1542    0.0000 C   0  0  0  0  0  0  0  0  0  0  0  0
    1.6292   -1.6625    0.0000 C   0  0  0  0  0  0  0  0  0  0  0  0
    6.1500    1.4458    0.0000 Cl  0  0  0  0  0  0  0  0  0  0  0  0
    5.4375    1.0333    0.0000 H   0  0  0  0  0  0  0  0  0  0  0  0
    8.5917   -0.0292    0.0000 Cl  0  0  0  0  0  0  0  0  0  0  0  0
    7.8792   -0.4417    0.0000 H   0  0  0  0  0  0  0  0  0  0  0  0
  3  2  2  0  0  0  0
  4  1  1  0  0  0  0
  5  4  2  0  0  0  0
  6  5  1  0  0  0  0
  7  4  1  0  0  0  0
  8  1  1  0  0  0  0
  9 12  1  0  0  0  0
 10 11  1  0  0  0  0
 11 13  1  0  0  0  0
 12 14  1  0  0  0  0
 13  7  2  0  0  0  0
 14 10  1  0  0  0  0
 15  9  2  0  0  0  0
 16  8  1  0  0  0  0
 17  8  1  0  0  0  0
 18 12  2  0  0  0  0
 19 22  2  0  0  0  0
 20 17  1  0  0  0  0
 21 16  1  0  0  0  0
 22 18  1  0  0  0  0
 23 20  1  0  0  0  0
  3  5  1  0  0  0  0
 21 23  1  0  0  0  0
  6 11  2  0  0  0  0
 15 19  1  0  0  0  0
 25 24  1  0  0  0  0
  2  1  1  0  0  0  0
 27 26  1  0  0  0  0
M  END
> <#>
1478

> <PLATE>
LAT019

> <ROW>
F

> <COL>
6

> <COORD>
F06

> <LATID>
LAT019F06

> <Supplier>
Chembridge

> <Suplier_CAT#>
7951996

> <Name>
Novel

> <Concentration_(mM)>
2.5

> <IC50_(µM)>
inactive

> <Yeast_Active?>
-

> <Pubchem_CID>
667233

$$$$
