
  -ISIS-  08130814242D

 25 27  0  0  0  0  0  0  0  0999 V2000
    1.3000    1.0458    0.0000 N   0  3  0  0  0  0  0  0  0  0  0  0
    4.0542    2.7708    0.0000 C   0  0  0  0  0  0  0  0  0  0  0  0
    4.7042    2.3833    0.0000 N   0  0  3  0  0  0  0  0  0  0  0  0
    2.1042    1.6333    0.0000 C   0  0  0  0  0  0  0  0  0  0  0  0
    6.0042    1.6458    0.0000 N   0  0  3  0  0  0  0  0  0  0  0  0
    3.4042    2.3833    0.0000 C   0  0  0  0  0  0  0  0  0  0  0  0
    2.1042    2.3833    0.0000 C   0  0  0  0  0  0  0  0  0  0  0  0
    6.6542    1.2625    0.0000 C   0  0  0  0  0  0  0  0  0  0  0  0
    2.7542    2.7708    0.0000 C   0  0  0  0  0  0  0  0  0  0  0  0
    2.7542    1.2500    0.0000 C   0  0  0  0  0  0  0  0  0  0  0  0
    0.6500    1.4208    0.0000 O   0  5  0  0  0  0  0  0  0  0  0  0
    7.3000    1.6458    0.0000 C   0  0  0  0  0  0  0  0  0  0  0  0
    1.3000    0.2958    0.0000 O   0  0  0  0  0  0  0  0  0  0  0  0
    5.3542    2.7708    0.0000 C   0  0  0  0  0  0  0  0  0  0  0  0
    4.7042    1.6333    0.0000 C   0  0  0  0  0  0  0  0  0  0  0  0
    6.0042    2.3958    0.0000 C   0  0  0  0  0  0  0  0  0  0  0  0
    5.3542    1.2625    0.0000 C   0  0  0  0  0  0  0  0  0  0  0  0
    3.4042    1.6333    0.0000 C   0  0  0  0  0  0  0  0  0  0  0  0
    4.0542    3.5208    0.0000 O   0  0  0  0  0  0  0  0  0  0  0  0
    7.9500    1.2708    0.0000 C   0  0  0  0  0  0  0  0  0  0  0  0
    8.6000    1.6500    0.0000 Cl  0  0  0  0  0  0  0  0  0  0  0  0
    6.6542    0.5208    0.0000 C   0  0  0  0  0  0  0  0  0  0  0  0
    1.4542    2.7708    0.0000 C   0  0  0  0  0  0  0  0  0  0  0  0
    7.3042    0.1458    0.0000 C   0  0  0  0  0  0  0  0  0  0  0  0
    7.9542    0.5208    0.0000 C   0  0  0  0  0  0  0  0  0  0  0  0
  2  6  1  0  0  0  0
  3  2  1  0  0  0  0
  4  1  1  0  0  0  0
  5 17  1  0  0  0  0
  6 18  1  0  0  0  0
  7  4  2  0  0  0  0
  8  5  1  0  0  0  0
  9  7  1  0  0  0  0
 10  4  1  0  0  0  0
 11  1  1  0  0  0  0
 12  8  1  0  0  0  0
 13  1  2  0  0  0  0
 14  3  1  0  0  0  0
 15  3  1  0  0  0  0
 16 14  1  0  0  0  0
 17 15  1  0  0  0  0
 18 10  2  0  0  0  0
 19  2  2  0  0  0  0
 20 12  2  0  0  0  0
 21 20  1  0  0  0  0
 22  8  2  0  0  0  0
 23  7  1  0  0  0  0
 24 22  1  0  0  0  0
 25 24  2  0  0  0  0
  6  9  2  0  0  0  0
  5 16  1  0  0  0  0
 20 25  1  0  0  0  0
M  CHG  2   1   1  11  -1
M  END
> <#>
1083

> <PLATE>
LAT014

> <ROW>
C

> <COL>
7

> <COORD>
C07

> <LATID>
LAT014C07

> <Supplier>
Chembridge

> <Suplier_CAT#>
5649867

> <Name>
Novel

> <Concentration_(mM)>
2.5

> <IC50_(µM)>
21

> <Yeast_Active?>
-

> <Pubchem_CID>
996153

$$$$
