
  -ISIS-  08130814242D

 14 14  0  0  0  0  0  0  0  0999 V2000
   10.0645   -1.7998    0.0000 C   0  0  0  0  0  0  0  0  0  0  0  0
    8.9820   -2.4248    0.0000 N   0  0  3  0  0  0  0  0  0  0  0  0
    7.8995   -1.7998    0.0000 C   0  0  0  0  0  0  0  0  0  0  0  0
    8.9820   -3.6748    0.0000 C   0  0  0  0  0  0  0  0  0  0  0  0
   10.0645   -4.2998    0.0000 O   0  0  0  0  0  0  0  0  0  0  0  0
    7.8995   -4.2998    0.0000 N   0  0  0  0  0  0  0  0  0  0  0  0
    6.8169   -3.6748    0.0000 C   0  0  0  0  0  0  0  0  0  0  0  0
    5.7344   -4.2998    0.0000 C   0  0  0  0  0  0  0  0  0  0  0  0
    4.6519   -3.6748    0.0000 C   0  0  0  0  0  0  0  0  0  0  0  0
    4.6519   -2.4248    0.0000 C   0  0  0  0  0  0  0  0  0  0  0  0
    5.7344   -1.7998    0.0000 C   0  0  0  0  0  0  0  0  0  0  0  0
    6.8169   -2.4248    0.0000 C   0  0  0  0  0  0  0  0  0  0  0  0
    3.5693   -1.7998    0.0000 Cl  0  0  0  0  0  0  0  0  0  0  0  0
    3.5693   -4.2998    0.0000 Cl  0  0  0  0  0  0  0  0  0  0  0  0
  1  2  1  0  0  0  0
  2  3  1  0  0  0  0
  2  4  1  0  0  0  0
  4  5  2  0  0  0  0
  4  6  1  0  0  0  0
  6  7  1  0  0  0  0
  7  8  2  0  0  0  0
  8  9  1  0  0  0  0
  9 10  2  0  0  0  0
 10 11  1  0  0  0  0
 11 12  2  0  0  0  0
  7 12  1  0  0  0  0
 10 13  1  0  0  0  0
  9 14  1  0  0  0  0
M  END
> <#>
334

> <PLATE>
LAT005

> <ROW>
F

> <COL>
3

> <COORD>
F03

> <LATID>
LAT005F03

> <Supplier>
Sigma

> <Suplier_CAT#>
D2425

> <Name>
Diuron

> <Concentration_(mM)>
2.5

> <IC50_(µM)>
>100

> <Yeast_Active?>
-

> <Pubchem_CID>
3120

> <Description>
Herbicide

> <Comment>
PS II target site

$$$$
