
  -ISIS-  08130814242D

 18 19  0  0  0  0  0  0  0  0999 V2000
   -2.5833    1.3958    0.0000 N   0  0  0  0  0  0  0  0  0  0  0  0
   -2.9958    1.0958    0.0000 C   0  0  0  0  0  0  0  0  0  0  0  0
   -2.3333    0.6333    0.0000 C   0  0  0  0  0  0  0  0  0  0  0  0
   -2.1958    1.1000    0.0000 C   0  0  0  0  0  0  0  0  0  0  0  0
   -2.8333    0.6000    0.0000 S   0  0  0  0  0  0  0  0  0  0  0  0
   -0.4708   -0.3500    0.0000 C   0  0  3  0  0  0  0  0  0  0  0  0
   -2.0458    0.2500    0.0000 C   0  0  0  0  0  0  0  0  0  0  0  0
   -0.7708    0.0208    0.0000 C   0  0  0  0  0  0  0  0  0  0  0  0
   -3.4708    1.2458    0.0000 O   0  0  0  0  0  0  0  0  0  0  0  0
   -1.7333    1.2500    0.0000 O   0  0  0  0  0  0  0  0  0  0  0  0
   -1.5625    0.3333    0.0000 C   0  0  0  0  0  0  0  0  0  0  0  0
   -1.2625   -0.0500    0.0000 C   0  0  0  0  0  0  0  0  0  0  0  0
   -0.1833   -0.7167    0.0000 F   0  0  0  0  0  0  0  0  0  0  0  0
   -0.0958   -0.0500    0.0000 F   0  0  0  0  0  0  0  0  0  0  0  0
   -0.8500   -0.6500    0.0000 F   0  0  0  0  0  0  0  0  0  0  0  0
   -0.5958    0.4833    0.0000 C   0  0  0  0  0  0  0  0  0  0  0  0
   -0.8958    0.8500    0.0000 C   0  0  0  0  0  0  0  0  0  0  0  0
   -1.3708    0.7708    0.0000 C   0  0  0  0  0  0  0  0  0  0  0  0
  2  1  1  0  0  0  0
  3  4  1  0  0  0  0
  4  1  1  0  0  0  0
  5  2  1  0  0  0  0
  6  8  1  0  0  0  0
  7  3  2  0  0  0  0
  8 12  1  0  0  0  0
  9  2  2  0  0  0  0
 10  4  2  0  0  0  0
 11  7  1  0  0  0  0
 12 11  2  0  0  0  0
 13  6  1  0  0  0  0
 14  6  1  0  0  0  0
 15  6  1  0  0  0  0
 16 17  1  0  0  0  0
 17 18  2  0  0  0  0
 18 11  1  0  0  0  0
  3  5  1  0  0  0  0
 16  8  2  0  0  0  0
M  END
> <#>
987

> <PLATE>
LAT013

> <ROW>
C

> <COL>
5

> <COORD>
C05

> <LATID>
LAT013C05

> <Supplier>
Chembridge

> <Suplier_CAT#>
5721666

> <Name>
Novel

> <Sec_Name>
229_A09

> <Concentration_(mM)>
2.5

> <IC50_(µM)>
23

> <Yeast_Active?>
-

> <Pubchem_CID>
1361332

$$$$
