
  -ISIS-  08130814242D

 27 30  0  0  0  0  0  0  0  0999 V2000
    2.2417    3.1208    0.0000 N   0  0  3  0  0  0  0  0  0  0  0  0
    2.9917    3.2083    0.0000 C   0  0  0  0  0  0  0  0  0  0  0  0
    3.1417    3.9333    0.0000 N   0  0  0  0  0  0  0  0  0  0  0  0
    1.9417    3.8083    0.0000 N   0  0  0  0  0  0  0  0  0  0  0  0
    2.4917    4.3042    0.0000 N   0  0  0  0  0  0  0  0  0  0  0  0
    1.8667    2.4708    0.0000 C   0  0  0  0  0  0  0  0  0  0  0  0
    3.4917    2.6458    0.0000 S   0  0  0  0  0  0  0  0  0  0  0  0
    2.2417    1.8208    0.0000 C   0  0  0  0  0  0  0  0  0  0  0  0
    5.4625    2.3958    0.0000 C   0  0  0  0  0  0  0  0  0  0  0  0
    5.9625    1.8458    0.0000 C   0  0  0  0  0  0  0  0  0  0  0  0
    6.6917    1.9958    0.0000 C   0  0  0  0  0  0  0  0  0  0  0  0
    4.7292    2.2458    0.0000 C   0  0  0  0  0  0  0  0  0  0  0  0
    6.9292    2.7083    0.0000 C   0  0  0  0  0  0  0  0  0  0  0  0
    4.2250    2.8000    0.0000 C   0  0  0  0  0  0  0  0  0  0  0  0
    5.6917    3.1125    0.0000 C   0  0  0  0  0  0  0  0  0  0  0  0
    4.4917    1.5333    0.0000 O   0  0  0  0  0  0  0  0  0  0  0  0
    6.4250    3.2708    0.0000 C   0  0  0  0  0  0  0  0  0  0  0  0
    1.8667    1.1750    0.0000 C   0  0  0  0  0  0  0  0  0  0  0  0
    7.2000    1.4375    0.0000 O   0  0  0  0  0  0  0  0  0  0  0  0
    1.1167    2.4708    0.0000 C   0  0  0  0  0  0  0  0  0  0  0  0
    7.6625    2.8708    0.0000 O   0  0  0  0  0  0  0  0  0  0  0  0
    2.9917    1.8208    0.0000 C   0  0  0  0  0  0  0  0  0  0  0  0
    0.7417    1.8208    0.0000 C   0  0  0  0  0  0  0  0  0  0  0  0
    1.1167    1.1750    0.0000 C   0  0  0  0  0  0  0  0  0  0  0  0
    2.2417    0.5250    0.0000 C   0  0  0  0  0  0  0  0  0  0  0  0
    3.3667    1.1750    0.0000 C   0  0  0  0  0  0  0  0  0  0  0  0
    2.9917    0.5250    0.0000 C   0  0  0  0  0  0  0  0  0  0  0  0
  2  1  1  0  0  0  0
  3  2  2  0  0  0  0
  4  1  1  0  0  0  0
  5  4  2  0  0  0  0
  6  1  1  0  0  0  0
  7  2  1  0  0  0  0
  8  6  1  0  0  0  0
  9 12  1  0  0  0  0
 10  9  1  0  0  0  0
 11 10  2  0  0  0  0
 12 14  1  0  0  0  0
 13 17  2  0  0  0  0
 14  7  1  0  0  0  0
 15  9  2  0  0  0  0
 16 12  2  0  0  0  0
 17 15  1  0  0  0  0
 18  8  2  0  0  0  0
 19 11  1  0  0  0  0
 20  6  2  0  0  0  0
 21 13  1  0  0  0  0
 22  8  1  0  0  0  0
 23 20  1  0  0  0  0
 24 23  2  0  0  0  0
 25 18  1  0  0  0  0
 26 22  2  0  0  0  0
 27 26  1  0  0  0  0
  3  5  1  0  0  0  0
 24 18  1  0  0  0  0
 25 27  2  0  0  0  0
 13 11  1  0  0  0  0
M  END
> <#>
1387

> <PLATE>
LAT018

> <ROW>
C

> <COL>
5

> <COORD>
C05

> <LATID>
LAT018C05

> <Supplier>
Chembridge

> <Suplier_CAT#>
7919469

> <Name>
Novel

> <Concentration_(mM)>
2.5

> <IC50_(µM)>
inactive

> <Yeast_Active?>
-

> <Pubchem_CID>
1251060

$$$$
