
  -ISIS-  08130814242D

 24 25  0  0  0  0  0  0  0  0999 V2000
    4.2875    0.7208    0.0000 N   0  3  0  0  0  0  0  0  0  0  0  0
    4.2875   -0.2375    0.0000 C   0  0  0  0  0  0  0  0  0  0  0  0
    0.1875   -0.6875    0.0000 C   0  0  0  0  0  0  0  0  0  0  0  0
    1.8292   -0.6875    0.0000 N   0  0  0  0  0  0  0  0  0  0  0  0
    3.4667   -0.7167    0.0000 C   0  0  0  0  0  0  0  0  0  0  0  0
    3.4667    1.1708    0.0000 O   0  5  0  0  0  0  0  0  0  0  0  0
    5.1042    1.1708    0.0000 O   0  0  0  0  0  0  0  0  0  0  0  0
   -3.0958    1.2000    0.0000 C   0  0  0  0  0  0  0  0  0  0  0  0
    1.0042   -0.2375    0.0000 N   0  0  0  0  0  0  0  0  0  0  0  0
   -3.9125    0.7208    0.0000 C   0  0  0  0  0  0  0  0  0  0  0  0
   -2.2708    0.7208    0.0000 C   0  0  0  0  0  0  0  0  0  0  0  0
    0.1875   -1.6500    0.0000 O   0  0  0  0  0  0  0  0  0  0  0  0
    2.6500   -0.2375    0.0000 C   0  0  0  0  0  0  0  0  0  0  0  0
   -3.9125   -0.2375    0.0000 C   0  0  0  0  0  0  0  0  0  0  0  0
   -0.6333   -0.2375    0.0000 C   0  0  0  0  0  0  0  0  0  0  0  0
   -2.2708   -0.2375    0.0000 C   0  0  0  0  0  0  0  0  0  0  0  0
   -1.4500   -0.6875    0.0000 O   0  0  0  0  0  0  0  0  0  0  0  0
   -3.0958   -0.6875    0.0000 C   0  0  0  0  0  0  0  0  0  0  0  0
    5.1042   -0.7167    0.0000 C   0  0  0  0  0  0  0  0  0  0  0  0
    3.4667   -1.6500    0.0000 C   0  0  0  0  0  0  0  0  0  0  0  0
   -3.0958    2.1333    0.0000 C   0  0  0  0  0  0  0  0  0  0  0  0
   -4.7333    1.2000    0.0000 C   0  0  0  0  0  0  0  0  0  0  0  0
    5.1042   -1.6500    0.0000 C   0  0  0  0  0  0  0  0  0  0  0  0
    4.2875   -2.1292    0.0000 C   0  0  0  0  0  0  0  0  0  0  0  0
  2  1  1  0  0  0  0
  3  9  1  0  0  0  0
  4 13  2  0  0  0  0
  5  2  1  0  0  0  0
  6  1  1  0  0  0  0
  7  1  2  0  0  0  0
  8 11  2  0  0  0  0
  9  4  1  0  0  0  0
 10 14  2  0  0  0  0
 11 16  1  0  0  0  0
 12  3  2  0  0  0  0
 13  5  1  0  0  0  0
 14 18  1  0  0  0  0
 15  3  1  0  0  0  0
 16 17  1  0  0  0  0
 17 15  1  0  0  0  0
 18 16  2  0  0  0  0
 19  2  2  0  0  0  0
 20  5  2  0  0  0  0
 21  8  1  0  0  0  0
 22 10  1  0  0  0  0
 23 19  1  0  0  0  0
 24 23  2  0  0  0  0
 24 20  1  0  0  0  0
  8 10  1  0  0  0  0
M  CHG  2   1   1   6  -1
M  END
> <#>
1018

> <PLATE>
LAT013

> <ROW>
B

> <COL>
9

> <COORD>
B09

> <LATID>
LAT013B09

> <Supplier>
Chembridge

> <Suplier_CAT#>
5774685

> <Name>
Novel

> <Sec_Name>
244_D08

> <Concentration_(mM)>
2.5

> <IC50_(µM)>
4

> <Yeast_Active?>
-

> <Pubchem_CID>
869892

$$$$
