
  -ISIS-  08130814242D

 21 22  0  0  0  0  0  0  0  0999 V2000
   -2.5833    1.3958    0.0000 N   0  0  3  0  0  0  0  0  0  0  0  0
   -2.9958    1.0958    0.0000 C   0  0  0  0  0  0  0  0  0  0  0  0
   -2.3333    0.6333    0.0000 C   0  0  0  0  0  0  0  0  0  0  0  0
   -2.1958    1.1000    0.0000 C   0  0  0  0  0  0  0  0  0  0  0  0
   -2.8333    0.6000    0.0000 S   0  0  0  0  0  0  0  0  0  0  0  0
   -2.0458    0.2500    0.0000 C   0  0  0  0  0  0  0  0  0  0  0  0
   -0.7708    0.0208    0.0000 C   0  0  0  0  0  0  0  0  0  0  0  0
   -1.5625    0.3333    0.0000 C   0  0  0  0  0  0  0  0  0  0  0  0
   -0.5958    0.4833    0.0000 C   0  0  0  0  0  0  0  0  0  0  0  0
   -1.2625   -0.0500    0.0000 C   0  0  0  0  0  0  0  0  0  0  0  0
   -3.4708    1.2458    0.0000 S   0  0  0  0  0  0  0  0  0  0  0  0
   -1.7333    1.2500    0.0000 O   0  0  0  0  0  0  0  0  0  0  0  0
   -0.1125    0.5708    0.0000 N   0  0  3  0  0  0  0  0  0  0  0  0
   -1.3708    0.7708    0.0000 C   0  0  0  0  0  0  0  0  0  0  0  0
   -0.8958    0.8500    0.0000 C   0  0  0  0  0  0  0  0  0  0  0  0
   -2.5708    1.8708    0.0000 C   0  0  0  0  0  0  0  0  0  0  0  0
   -1.4500   -0.5000    0.0000 O   0  0  0  0  0  0  0  0  0  0  0  0
    0.2000    0.2000    0.0000 C   0  0  0  0  0  0  0  0  0  0  0  0
    0.0542    1.0333    0.0000 C   0  0  0  0  0  0  0  0  0  0  0  0
    0.0042   -0.2542    0.0000 C   0  0  0  0  0  0  0  0  0  0  0  0
   -0.2333    1.4208    0.0000 C   0  0  0  0  0  0  0  0  0  0  0  0
  2  1  1  0  0  0  0
  3  4  1  0  0  0  0
  4  1  1  0  0  0  0
  5  2  1  0  0  0  0
  6  3  2  0  0  0  0
  7 10  1  0  0  0  0
  8  6  1  0  0  0  0
  9 15  1  0  0  0  0
 10  8  2  0  0  0  0
 11  2  2  0  0  0  0
 12  4  2  0  0  0  0
 13  9  1  0  0  0  0
 14  8  1  0  0  0  0
 15 14  2  0  0  0  0
 16  1  1  0  0  0  0
 17 10  1  0  0  0  0
 18 13  1  0  0  0  0
 19 13  1  0  0  0  0
 20 18  1  0  0  0  0
 21 19  1  0  0  0  0
  5  3  1  0  0  0  0
  7  9  2  0  0  0  0
M  END
> <#>
2078

> <PLATE>
LAT026

> <ROW>
F

> <COL>
11

> <COORD>
F11

> <LATID>
LAT026F11

> <Supplier>
Chembridge

> <Suplier_CAT#>
5710919

> <Sec_Name>
225_E05

> <Concentration_(mM)>
2.5

> <IC50_(µM)>
inactive

> <Yeast_Active?>
+

> <Pubchem_CID>
1359839

$$$$
