
  -ISIS-  08130814242D

 19 20  0  0  0  0  0  0  0  0999 V2000
    4.3500   -0.2500    0.0000 C   0  0  0  0  0  0  0  0  0  0  0  0
    3.9042   -1.6042    0.0000 C   0  0  0  0  0  0  0  0  0  0  0  0
    3.3667    0.8000    0.0000 C   0  0  0  0  0  0  0  0  0  0  0  0
    3.7375   -0.8042    0.0000 C   0  0  0  0  0  0  0  0  0  0  0  0
    3.2000    1.6000    0.0000 C   0  0  0  0  0  0  0  0  0  0  0  0
    4.1667    0.5500    0.0000 C   0  0  0  0  0  0  0  0  0  0  0  0
    3.3042   -2.1542    0.0000 N   0  0  0  0  0  0  0  0  0  0  0  0
    4.7000   -1.8542    0.0000 O   0  0  0  0  0  0  0  0  0  0  0  0
    1.2500   -2.9542    0.0000 O   0  0  0  0  0  0  0  0  0  0  0  0
    4.7667    1.1000    0.0000 C   0  0  0  0  0  0  0  0  0  0  0  0
    3.8042    2.1625    0.0000 C   0  0  0  0  0  0  0  0  0  0  0  0
    2.7667    0.2458    0.0000 Cl  0  0  0  0  0  0  0  0  0  0  0  0
    2.7000   -2.7167    0.0000 C   0  0  0  0  0  0  0  0  0  0  0  0
    4.6000    1.9000    0.0000 C   0  0  0  0  0  0  0  0  0  0  0  0
    1.9042   -2.4667    0.0000 C   0  0  3  0  0  0  0  0  0  0  0  0
    3.6500    2.9708    0.0000 Cl  0  0  0  0  0  0  0  0  0  0  0  0
    0.5792   -2.4792    0.0000 C   0  0  0  0  0  0  0  0  0  0  0  0
    1.6542   -1.6875    0.0000 C   0  0  0  0  0  0  0  0  0  0  0  0
    0.8167   -1.7000    0.0000 C   0  0  0  0  0  0  0  0  0  0  0  0
  2  4  1  0  0  0  0
  3  6  1  0  0  0  0
  4  1  2  0  0  0  0
  5  3  2  0  0  0  0
  6  1  1  0  0  0  0
  7  2  1  0  0  0  0
  8  2  2  0  0  0  0
  9 15  1  0  0  0  0
 10  6  2  0  0  0  0
 11 14  2  0  0  0  0
 12  3  1  0  0  0  0
 13  7  1  0  0  0  0
 14 10  1  0  0  0  0
 15 13  1  0  0  0  0
 16 11  1  0  0  0  0
 17  9  1  0  0  0  0
 18 15  1  0  0  0  0
 19 18  1  0  0  0  0
  5 11  1  0  0  0  0
 17 19  1  0  0  0  0
M  END
> <#>
931

> <PLATE>
LAT012

> <ROW>
C

> <COL>
8

> <COORD>
C08

> <LATID>
LAT012C08

> <Supplier>
Chembridge

> <Suplier_CAT#>
5757264

> <Name>
Novel

> <Sec_Name>
240_B04

> <Concentration_(mM)>
2.5

> <IC50_(µM)>
52

> <Yeast_Active?>
-

> <Pubchem_CID>
725837

$$$$
