
  -ISIS-  08130814242D

 25 26  0  0  0  0  0  0  0  0999 V2000
    6.8542   -1.8000    0.0000 C   0  0  3  0  0  0  0  0  0  0  0  0
   -0.2708   -1.7875    0.0000 C   0  0  0  0  0  0  0  0  0  0  0  0
   -0.9833   -2.2000    0.0000 N   0  0  0  0  0  0  0  0  0  0  0  0
   -0.2708   -0.9667    0.0000 N   0  0  0  0  0  0  0  0  0  0  0  0
    1.8667   -2.2042    0.0000 C   0  0  0  0  0  0  0  0  0  0  0  0
    6.1375   -2.2042    0.0000 C   0  0  0  0  0  0  0  0  0  0  0  0
    3.3000   -2.2042    0.0000 N   0  0  0  0  0  0  0  0  0  0  0  0
    0.4375   -2.2000    0.0000 S   0  0  0  0  0  0  0  0  0  0  0  0
   -1.6958   -1.7875    0.0000 C   0  0  0  0  0  0  0  0  0  0  0  0
   -0.9833   -0.5500    0.0000 C   0  0  0  0  0  0  0  0  0  0  0  0
    2.5792   -1.8000    0.0000 N   0  0  0  0  0  0  0  0  0  0  0  0
   -1.6958   -0.9667    0.0000 C   0  0  0  0  0  0  0  0  0  0  0  0
    5.4292   -1.7875    0.0000 C   0  0  0  0  0  0  0  0  0  0  0  0
    1.8542   -3.0292    0.0000 O   0  0  0  0  0  0  0  0  0  0  0  0
    7.4375   -2.3792    0.0000 F   0  0  0  0  0  0  0  0  0  0  0  0
    6.6375   -1.0000    0.0000 F   0  0  0  0  0  0  0  0  0  0  0  0
    7.5667   -1.3792    0.0000 F   0  0  0  0  0  0  0  0  0  0  0  0
    1.1500   -1.7875    0.0000 C   0  0  0  0  0  0  0  0  0  0  0  0
    4.0042   -1.8000    0.0000 C   0  0  0  0  0  0  0  0  0  0  0  0
    4.7167   -2.2042    0.0000 C   0  0  0  0  0  0  0  0  0  0  0  0
    6.1375   -3.0292    0.0000 C   0  0  0  0  0  0  0  0  0  0  0  0
    5.4292   -3.4375    0.0000 C   0  0  0  0  0  0  0  0  0  0  0  0
   -2.4000   -2.2000    0.0000 C   0  0  0  0  0  0  0  0  0  0  0  0
   -0.9833    0.2708    0.0000 C   0  0  0  0  0  0  0  0  0  0  0  0
    4.7167   -3.0292    0.0000 C   0  0  0  0  0  0  0  0  0  0  0  0
  2  8  1  0  0  0  0
  3  2  2  0  0  0  0
  4  2  1  0  0  0  0
  5 11  1  0  0  0  0
  6  1  1  0  0  0  0
  7 19  2  0  0  0  0
  8 18  1  0  0  0  0
  9  3  1  0  0  0  0
 10  4  2  0  0  0  0
 11  7  1  0  0  0  0
 12 10  1  0  0  0  0
 13  6  2  0  0  0  0
 14  5  2  0  0  0  0
 15  1  1  0  0  0  0
 16  1  1  0  0  0  0
 17  1  1  0  0  0  0
 18  5  1  0  0  0  0
 19 20  1  0  0  0  0
 20 13  1  0  0  0  0
 21  6  1  0  0  0  0
 22 21  2  0  0  0  0
 23  9  1  0  0  0  0
 24 10  1  0  0  0  0
 25 22  1  0  0  0  0
 20 25  2  0  0  0  0
  9 12  2  0  0  0  0
M  END
> <#>
827

> <PLATE>
LAT011

> <ROW>
C

> <COL>
5

> <COORD>
C05

> <LATID>
LAT011C05

> <Supplier>
Chembridge

> <Suplier_CAT#>
5630636

> <Name>
Novel

> <Sec_Name>
192_G02

> <Concentration_(mM)>
2.5

> <IC50_(µM)>
>100

> <Yeast_Active?>
-

> <Pubchem_CID>
1352946

$$$$
