
  -ISIS-  08130814242D

 19 20  0  0  0  0  0  0  0  0999 V2000
    3.0000   -1.4375    0.0000 C   0  0  0  0  0  0  0  0  0  0  0  0
    5.6000   -1.4500    0.0000 C   0  0  0  0  0  0  0  0  0  0  0  0
    4.3000   -1.4375    0.0000 N   0  0  0  0  0  0  0  0  0  0  0  0
    6.2792   -1.7500    0.0000 S   0  0  0  0  0  0  0  0  0  0  0  0
    4.9500   -1.8167    0.0000 C   0  0  0  0  0  0  0  0  0  0  0  0
    3.6500   -1.8167    0.0000 N   0  0  0  0  0  0  0  0  0  0  0  0
    1.7000   -1.4375    0.0000 O   0  0  0  0  0  0  0  0  0  0  0  0
    6.7875   -1.1875    0.0000 C   0  0  0  0  0  0  0  0  0  0  0  0
    5.6792   -0.7000    0.0000 C   0  0  0  0  0  0  0  0  0  0  0  0
    3.0000   -0.6875    0.0000 O   0  0  0  0  0  0  0  0  0  0  0  0
    1.0500   -1.8167    0.0000 C   0  0  0  0  0  0  0  0  0  0  0  0
    6.4042   -0.5375    0.0000 C   0  0  0  0  0  0  0  0  0  0  0  0
    2.3500   -1.8167    0.0000 C   0  0  0  0  0  0  0  0  0  0  0  0
    0.4000   -1.4375    0.0000 C   0  0  0  0  0  0  0  0  0  0  0  0
    1.0500   -2.5667    0.0000 C   0  0  0  0  0  0  0  0  0  0  0  0
    0.4000   -0.6875    0.0000 C   0  0  0  0  0  0  0  0  0  0  0  0
   -0.2458   -1.8167    0.0000 C   0  0  0  0  0  0  0  0  0  0  0  0
   -0.2458   -2.5667    0.0000 C   0  0  0  0  0  0  0  0  0  0  0  0
    0.4000   -2.9500    0.0000 C   0  0  0  0  0  0  0  0  0  0  0  0
  2  5  1  0  0  0  0
  3  6  1  0  0  0  0
  4  2  1  0  0  0  0
  5  3  2  0  0  0  0
  6  1  1  0  0  0  0
  7 13  1  0  0  0  0
  8  4  1  0  0  0  0
  9  2  2  0  0  0  0
 10  1  2  0  0  0  0
 11  7  1  0  0  0  0
 12  9  1  0  0  0  0
 13  1  1  0  0  0  0
 14 11  1  0  0  0  0
 15 11  2  0  0  0  0
 16 14  1  0  0  0  0
 17 14  2  0  0  0  0
 18 19  2  0  0  0  0
 19 15  1  0  0  0  0
 18 17  1  0  0  0  0
 12  8  2  0  0  0  0
M  END
> <#>
566

> <PLATE>
LAT008

> <ROW>
F

> <COL>
2

> <COORD>
F02

> <LATID>
LAT008F02

> <Supplier>
Chembridge

> <Suplier_CAT#>
5475673

> <Name>
Novel

> <Sec_Name>
138_H07

> <Concentration_(mM)>
2.5

> <IC50_(µM)>
9

> <Yeast_Active?>
-

> <Pubchem_CID>
868377

$$$$
