
  -ISIS-  08130814242D

 25 27  0  0  0  0  0  0  0  0999 V2000
   -1.5125    0.6583    0.0000 N   0  0  0  0  0  0  0  0  0  0  0  0
   -1.7708   -0.1292    0.0000 C   0  0  0  0  0  0  0  0  0  0  0  0
   -0.6875    0.6583    0.0000 C   0  0  0  0  0  0  0  0  0  0  0  0
   -1.1000   -0.6125    0.0000 N   0  0  0  0  0  0  0  0  0  0  0  0
   -0.4333   -0.1292    0.0000 N   0  0  0  0  0  0  0  0  0  0  0  0
   -2.5458   -0.3792    0.0000 C   0  0  0  0  0  0  0  0  0  0  0  0
    1.9250    1.8208    0.0000 C   0  0  0  0  0  0  0  0  0  0  0  0
    2.2542    1.0625    0.0000 C   0  0  0  0  0  0  0  0  0  0  0  0
    3.0750    0.9750    0.0000 C   0  0  0  0  0  0  0  0  0  0  0  0
    1.1042    1.9083    0.0000 C   0  0  0  0  0  0  0  0  0  0  0  0
   -0.2000    1.3250    0.0000 S   0  0  0  0  0  0  0  0  0  0  0  0
   -2.7208   -1.1875    0.0000 C   0  0  0  0  0  0  0  0  0  0  0  0
    3.5625    1.6458    0.0000 C   0  0  0  0  0  0  0  0  0  0  0  0
    0.6167    1.2375    0.0000 C   0  0  0  0  0  0  0  0  0  0  0  0
    2.4042    2.4833    0.0000 C   0  0  0  0  0  0  0  0  0  0  0  0
    0.7667    2.6583    0.0000 O   0  0  0  0  0  0  0  0  0  0  0  0
    3.2167    2.4000    0.0000 C   0  0  0  0  0  0  0  0  0  0  0  0
    3.4125    0.2208    0.0000 O   0  0  0  0  0  0  0  0  0  0  0  0
    4.3792    1.5583    0.0000 O   0  0  0  0  0  0  0  0  0  0  0  0
   -3.1583    0.1708    0.0000 C   0  0  0  0  0  0  0  0  0  0  0  0
   -2.1000   -1.7375    0.0000 O   0  0  0  0  0  0  0  0  0  0  0  0
   -3.5000   -1.4417    0.0000 C   0  0  0  0  0  0  0  0  0  0  0  0
   -2.2708   -2.5417    0.0000 C   0  0  0  0  0  0  0  0  0  0  0  0
   -3.9458   -0.0792    0.0000 C   0  0  0  0  0  0  0  0  0  0  0  0
   -4.1208   -0.8917    0.0000 C   0  0  0  0  0  0  0  0  0  0  0  0
  2  1  2  0  0  0  0
  3  1  1  0  0  0  0
  4  2  1  0  0  0  0
  5  3  2  0  0  0  0
  6  2  1  0  0  0  0
  7 10  1  0  0  0  0
  8  7  2  0  0  0  0
  9  8  1  0  0  0  0
 10 14  1  0  0  0  0
 11  3  1  0  0  0  0
 12  6  1  0  0  0  0
 13 17  1  0  0  0  0
 14 11  1  0  0  0  0
 15  7  1  0  0  0  0
 16 10  2  0  0  0  0
 17 15  2  0  0  0  0
 18  9  1  0  0  0  0
 19 13  1  0  0  0  0
 20  6  2  0  0  0  0
 21 12  1  0  0  0  0
 22 12  2  0  0  0  0
 23 21  1  0  0  0  0
 24 20  1  0  0  0  0
 25 24  2  0  0  0  0
  5  4  1  0  0  0  0
 25 22  1  0  0  0  0
 13  9  2  0  0  0  0
M  END
> <#>
1351

> <PLATE>
LAT017

> <ROW>
G

> <COL>
10

> <COORD>
G10

> <LATID>
LAT017G10

> <Supplier>
Chembridge

> <Suplier_CAT#>
7587885

> <Name>
Novel

> <Concentration_(mM)>
2.5

> <IC50_(µM)>
>100

> <Yeast_Active?>
-

> <Pubchem_CID>
NULL

> <Comment>
SS12

$$$$
