
  -ISIS-  08130814242D

 25 27  0  0  0  0  0  0  0  0999 V2000
    1.9875    1.6625    0.0000 C   0  0  0  0  0  0  0  0  0  0  0  0
   -1.8708    0.5625    0.0000 C   0  0  0  0  0  0  0  0  0  0  0  0
    1.9667    0.5458    0.0000 N   0  0  0  0  0  0  0  0  0  0  0  0
    2.9500    2.2208    0.0000 C   0  0  0  0  0  0  0  0  0  0  0  0
    1.0042    0.0000    0.0000 C   0  0  0  0  0  0  0  0  0  0  0  0
   -0.9125    0.0000    0.0000 C   0  0  0  0  0  0  0  0  0  0  0  0
   -2.8333    0.0000    0.0000 N   0  0  0  0  0  0  0  0  0  0  0  0
    0.0500    0.5458    0.0000 C   0  0  0  0  0  0  0  0  0  0  0  0
    3.9875    1.8833    0.0000 S   0  0  0  0  0  0  0  0  0  0  0  0
    1.0042   -1.1000    0.0000 C   0  0  0  0  0  0  0  0  0  0  0  0
    2.9500    3.3208    0.0000 C   0  0  0  0  0  0  0  0  0  0  0  0
    1.0292    2.2208    0.0000 O   0  0  0  0  0  0  0  0  0  0  0  0
   -1.8708    1.6625    0.0000 O   0  0  0  0  0  0  0  0  0  0  0  0
    4.6042    2.7833    0.0000 C   0  0  0  0  0  0  0  0  0  0  0  0
   -0.9125   -1.1167    0.0000 C   0  0  0  0  0  0  0  0  0  0  0  0
    3.9875    3.6458    0.0000 C   0  0  0  0  0  0  0  0  0  0  0  0
    0.0500   -1.6542    0.0000 C   0  0  0  0  0  0  0  0  0  0  0  0
   -3.7958    0.5625    0.0000 C   0  0  0  0  0  0  0  0  0  0  0  0
    1.9792   -1.6375    0.0000 O   0  0  0  0  0  0  0  0  0  0  0  0
   -3.7708    1.6833    0.0000 C   0  0  0  0  0  0  0  0  0  0  0  0
   -4.7333    0.0208    0.0000 C   0  0  0  0  0  0  0  0  0  0  0  0
    2.9167   -1.0875    0.0000 C   0  0  0  0  0  0  0  0  0  0  0  0
   -4.7333    2.2208    0.0000 C   0  0  0  0  0  0  0  0  0  0  0  0
   -5.6958    0.5625    0.0000 C   0  0  0  0  0  0  0  0  0  0  0  0
   -5.6958    1.6833    0.0000 C   0  0  0  0  0  0  0  0  0  0  0  0
  2  6  1  0  0  0  0
  3  1  1  0  0  0  0
  4  1  1  0  0  0  0
  5  3  1  0  0  0  0
  6  8  1  0  0  0  0
  7  2  1  0  0  0  0
  8  5  2  0  0  0  0
  9  4  1  0  0  0  0
 10  5  1  0  0  0  0
 11  4  2  0  0  0  0
 12  1  2  0  0  0  0
 13  2  2  0  0  0  0
 14  9  1  0  0  0  0
 15 17  1  0  0  0  0
 16 11  1  0  0  0  0
 17 10  2  0  0  0  0
 18  7  1  0  0  0  0
 19 10  1  0  0  0  0
 20 18  1  0  0  0  0
 21 18  2  0  0  0  0
 22 19  1  0  0  0  0
 23 20  2  0  0  0  0
 24 21  1  0  0  0  0
 25 24  2  0  0  0  0
 16 14  2  0  0  0  0
 15  6  2  0  0  0  0
 23 25  1  0  0  0  0
M  END
> <#>
789

> <PLATE>
LAT010

> <ROW>
E

> <COL>
10

> <COORD>
E10

> <LATID>
LAT010E10

> <Supplier>
Chembridge

> <Suplier_CAT#>
5628759

> <Name>
Novel

> <Sec_Name>
191_D08

> <Concentration_(mM)>
2.5

> <IC50_(µM)>
27

> <Yeast_Active?>
-

> <Pubchem_CID>
1352798

$$$$
