
  -ISIS-  08130814242D

 23 25  0  0  0  0  0  0  0  0999 V2000
    5.8917  -23.9792    0.0000 N   0  0  0  0  0  0  0  0  0  0  0  0
    5.4417  -23.6042    0.0000 C   0  0  0  0  0  0  0  0  0  0  0  0
    5.6542  -23.0625    0.0000 N   0  0  0  0  0  0  0  0  0  0  0  0
    6.3875  -23.6667    0.0000 C   0  0  0  0  0  0  0  0  0  0  0  0
    6.2417  -23.1042    0.0000 N   0  0  0  0  0  0  0  0  0  0  0  0
    8.4000  -23.3792    0.0000 C   0  0  0  0  0  0  0  0  0  0  0  0
    8.9417  -23.6042    0.0000 C   0  0  0  0  0  0  0  0  0  0  0  0
    9.4042  -23.2417    0.0000 C   0  0  0  0  0  0  0  0  0  0  0  0
    7.9375  -23.7417    0.0000 C   0  0  0  0  0  0  0  0  0  0  0  0
    6.9292  -23.8917    0.0000 S   0  0  0  0  0  0  0  0  0  0  0  0
    9.3250  -22.6625    0.0000 C   0  0  0  0  0  0  0  0  0  0  0  0
    4.8750  -23.7500    0.0000 C   0  0  0  0  0  0  0  0  0  0  0  0
    7.3917  -23.5292    0.0000 C   0  0  0  0  0  0  0  0  0  0  0  0
    3.7292  -24.0292    0.0000 N   0  0  0  0  0  0  0  0  0  0  0  0
    8.3167  -22.8042    0.0000 C   0  0  0  0  0  0  0  0  0  0  0  0
    8.0167  -24.3292    0.0000 O   0  0  0  0  0  0  0  0  0  0  0  0
    8.7792  -22.4417    0.0000 C   0  0  0  0  0  0  0  0  0  0  0  0
    9.9542  -23.4625    0.0000 O   0  0  0  0  0  0  0  0  0  0  0  0
    9.7875  -22.2917    0.0000 O   0  0  0  0  0  0  0  0  0  0  0  0
    4.1417  -24.4542    0.0000 C   0  0  0  0  0  0  0  0  0  0  0  0
    3.8917  -23.4667    0.0000 C   0  0  0  0  0  0  0  0  0  0  0  0
    4.7167  -24.3125    0.0000 C   0  0  0  0  0  0  0  0  0  0  0  0
    4.4667  -23.3250    0.0000 C   0  0  0  0  0  0  0  0  0  0  0  0
  2  1  1  0  0  0  0
  3  2  2  0  0  0  0
  4  1  1  0  0  0  0
  5  4  2  0  0  0  0
  6  9  1  0  0  0  0
  7  6  2  0  0  0  0
  8  7  1  0  0  0  0
  9 13  1  0  0  0  0
 10  4  1  0  0  0  0
 11 17  1  0  0  0  0
 12  2  1  0  0  0  0
 13 10  1  0  0  0  0
 14 21  2  0  0  0  0
 15  6  1  0  0  0  0
 16  9  2  0  0  0  0
 17 15  2  0  0  0  0
 18  8  1  0  0  0  0
 19 11  1  0  0  0  0
 20 22  2  0  0  0  0
 21 23  1  0  0  0  0
 22 12  1  0  0  0  0
 23 12  2  0  0  0  0
  5  3  1  0  0  0  0
 20 14  1  0  0  0  0
  8 11  2  0  0  0  0
M  END
> <#>
1260

> <PLATE>
LAT016

> <ROW>
D

> <COL>
9

> <COORD>
D09

> <LATID>
LAT016D09

> <Supplier>
Chembridge

> <Suplier_CAT#>
6593203

> <Name>
Novel

> <Concentration_(mM)>
2.5

> <IC50_(µM)>
inactive

> <Yeast_Active?>
-

> <Pubchem_CID>
NULL

$$$$
