
  -ISIS-  08130814242D

 21 22  0  0  0  0  0  0  0  0999 V2000
    3.8875    1.4875    0.0000 C   0  0  0  0  0  0  0  0  0  0  0  0
    3.5125    2.1458    0.0000 N   0  0  0  0  0  0  0  0  0  0  0  0
    4.6375    1.4875    0.0000 C   0  0  0  0  0  0  0  0  0  0  0  0
    2.7625    3.4375    0.0000 N   0  0  0  0  0  0  0  0  0  0  0  0
    3.5125    0.8375    0.0000 O   0  0  0  0  0  0  0  0  0  0  0  0
    8.0125    2.1458    0.0000 C   0  0  0  0  0  0  0  0  0  0  0  0
    5.0125    0.8375    0.0000 C   0  0  0  0  0  0  0  0  0  0  0  0
    5.0125    2.1458    0.0000 C   0  0  0  0  0  0  0  0  0  0  0  0
    8.3875    2.7875    0.0000 C   0  0  0  0  0  0  0  0  0  0  0  0
    6.8875    1.4875    0.0000 O   0  0  0  0  0  0  0  0  0  0  0  0
    2.7625    2.1458    0.0000 C   0  0  0  0  0  0  0  0  0  0  0  0
    2.3792    2.7875    0.0000 C   0  0  0  0  0  0  0  0  0  0  0  0
    6.1375    1.4875    0.0000 C   0  0  0  0  0  0  0  0  0  0  0  0
    7.2625    2.1458    0.0000 C   0  0  0  0  0  0  0  0  0  0  0  0
    5.7625    0.8375    0.0000 C   0  0  0  0  0  0  0  0  0  0  0  0
    5.7625    2.1458    0.0000 C   0  0  0  0  0  0  0  0  0  0  0  0
    2.3792    4.0792    0.0000 C   0  0  0  0  0  0  0  0  0  0  0  0
    8.3875    1.4875    0.0000 C   0  0  0  0  0  0  0  0  0  0  0  0
    1.6375    2.7875    0.0000 C   0  0  0  0  0  0  0  0  0  0  0  0
    1.6375    4.0792    0.0000 C   0  0  0  0  0  0  0  0  0  0  0  0
    1.2625    3.4375    0.0000 C   0  0  0  0  0  0  0  0  0  0  0  0
  2  1  1  0  0  0  0
  3  1  1  0  0  0  0
  4 12  1  0  0  0  0
  5  1  2  0  0  0  0
  6 14  1  0  0  0  0
  7  3  2  0  0  0  0
  8  3  1  0  0  0  0
  9  6  2  0  0  0  0
 10 13  1  0  0  0  0
 11  2  1  0  0  0  0
 12 11  1  0  0  0  0
 13 16  1  0  0  0  0
 14 10  1  0  0  0  0
 15  7  1  0  0  0  0
 16  8  2  0  0  0  0
 17  4  2  0  0  0  0
 18  6  1  0  0  0  0
 19 12  2  0  0  0  0
 20 21  2  0  0  0  0
 21 19  1  0  0  0  0
 15 13  2  0  0  0  0
 20 17  1  0  0  0  0
M  END
> <#>
1476

> <PLATE>
LAT019

> <ROW>
D

> <COL>
6

> <COORD>
D06

> <LATID>
LAT019D06

> <Supplier>
Chembridge

> <Suplier_CAT#>
9068077

> <Name>
Novel

> <Concentration_(mM)>
2.5

> <IC50_(µM)>
>100

> <Yeast_Active?>
-

> <Pubchem_CID>
6473208

$$$$
