
  -ISIS-  08130814242D

 22 23  0  0  0  0  0  0  0  0999 V2000
   -2.5208    1.7625    0.0000 C   0  0  0  0  0  0  0  0  0  0  0  0
    0.2542    1.7833    0.0000 C   0  0  0  0  0  0  0  0  0  0  0  0
    0.2542    0.9833    0.0000 N   0  0  3  0  0  0  0  0  0  0  0  0
   -2.5208    0.9625    0.0000 C   0  0  0  0  0  0  0  0  0  0  0  0
   -3.2000    0.5625    0.0000 C   0  0  0  0  0  0  0  0  0  0  0  0
   -0.4458    2.1833    0.0000 S   0  0  0  0  0  0  0  0  0  0  0  0
   -1.8208    2.1833    0.0000 C   0  0  0  0  0  0  0  0  0  0  0  0
   -3.9000    0.9625    0.0000 C   0  0  0  0  0  0  0  0  0  0  0  0
   -3.2000    2.1625    0.0000 C   0  0  0  0  0  0  0  0  0  0  0  0
    0.9542    2.1833    0.0000 S   0  0  0  0  0  0  0  0  0  0  0  0
    0.9542    0.5833    0.0000 C   0  0  0  0  0  0  0  0  0  0  0  0
   -3.9000    1.7625    0.0000 C   0  0  0  0  0  0  0  0  0  0  0  0
   -1.1458    1.7833    0.0000 C   0  0  0  0  0  0  0  0  0  0  0  0
   -1.8458    2.9625    0.0000 O   0  0  0  0  0  0  0  0  0  0  0  0
   -3.2000   -0.2375    0.0000 Br  0  0  0  0  0  0  0  0  0  0  0  0
   -1.8208    0.5625    0.0000 O   0  0  0  0  0  0  0  0  0  0  0  0
   -4.6208    2.1833    0.0000 Br  0  0  0  0  0  0  0  0  0  0  0  0
   -0.4458    0.5833    0.0000 C   0  0  0  0  0  0  0  0  0  0  0  0
    0.9542   -0.2375    0.0000 C   0  0  3  0  0  0  0  0  0  0  0  0
   -0.4458   -0.2375    0.0000 C   0  0  0  0  0  0  0  0  0  0  0  0
    0.2542   -0.6375    0.0000 C   0  0  0  0  0  0  0  0  0  0  0  0
    1.6792   -0.6375    0.0000 C   0  0  0  0  0  0  0  0  0  0  0  0
  2  6  1  0  0  0  0
  3  2  1  0  0  0  0
  4  1  2  0  0  0  0
  5  4  1  0  0  0  0
  6 13  1  0  0  0  0
  7  1  1  0  0  0  0
  8 12  1  0  0  0  0
  9  1  1  0  0  0  0
 10  2  2  0  0  0  0
 11  3  1  0  0  0  0
 12  9  2  0  0  0  0
 13  7  1  0  0  0  0
 14  7  2  0  0  0  0
 15  5  1  0  0  0  0
 16  4  1  0  0  0  0
 17 12  1  0  0  0  0
 18  3  1  0  0  0  0
 19 11  1  0  0  0  0
 20 18  1  0  0  0  0
 21 20  1  0  0  0  0
 22 19  1  0  0  0  0
  8  5  2  0  0  0  0
 21 19  1  0  0  0  0
M  END
> <#>
1894

> <PLATE>
LAT024

> <ROW>
F

> <COL>
8

> <COORD>
F08

> <LATID>
LAT024F08

> <Supplier>
Chembridge

> <Suplier_CAT#>
5540569

> <Name>
S001 C05

> <Concentration_(mM)>
2.5

> <IC50_(µM)>
inactive

> <Yeast_Active?>
-

> <Pubchem_CID>
1150135

$$$$
