
  -ISIS-  08130814242D

 42 45  0  0  0  0  0  0  0  0999 V2000
   10.6875    0.3583    0.0000 C   0  0  0  0  0  0  0  0  0  0  0  0
    9.9750   -0.0542    0.0000 C   0  0  0  0  0  0  0  0  0  0  0  0
   10.6875    1.1833    0.0000 C   0  0  0  0  0  0  0  0  0  0  0  0
   12.1125    0.3583    0.0000 C   0  0  0  0  0  0  0  0  0  0  0  0
   12.1125    1.1833    0.0000 C   0  0  0  0  0  0  0  0  0  0  0  0
   12.8250    1.5958    0.0000 C   0  0  2  0  0  0  0  0  0  0  0  0
    9.2625    0.3583    0.0000 C   0  0  0  0  0  0  0  0  0  0  0  0
   11.4000   -0.0542    0.0000 C   0  0  0  0  0  0  0  0  0  0  0  0
    9.9750    1.5958    0.0000 C   0  0  0  0  0  0  0  0  0  0  0  0
    9.2625    1.1833    0.0000 C   0  0  0  0  0  0  0  0  0  0  0  0
   13.5500    1.1833    0.0000 C   0  0  1  0  0  0  0  0  0  0  0  0
   12.8250   -0.0542    0.0000 C   0  0  2  0  0  0  0  0  0  0  0  0
   14.9667   -1.2917    0.0000 C   0  0  2  0  0  0  0  0  0  0  0  0
   11.4000    1.5958    0.0000 C   0  0  0  0  0  0  0  0  0  0  0  0
   14.9667   -2.1250    0.0000 C   0  0  1  0  0  0  0  0  0  0  0  0
   13.5292   -1.2917    0.0000 C   0  0  2  0  0  0  0  0  0  0  0  0
   13.5500    0.3583    0.0000 C   0  0  0  0  0  0  0  0  0  0  0  0
   13.5292   -2.1250    0.0000 O   0  0  0  0  0  0  0  0  0  0  0  0
   14.2500   -0.8792    0.0000 C   0  0  0  0  0  0  0  0  0  0  0  0
   12.8250    2.4208    0.0000 C   0  0  0  0  0  0  0  0  0  0  0  0
   14.2417   -2.5375    0.0000 C   0  0  1  0  0  0  0  0  0  0  0  0
   12.8250   -0.8833    0.0000 O   0  0  0  0  0  0  0  0  0  0  0  0
    9.9750   -0.8792    0.0000 O   0  0  0  0  0  0  0  0  0  0  0  0
   15.6875   -0.8750    0.0000 N   0  0  3  0  0  0  0  0  0  0  0  0
    8.5500   -0.0542    0.0000 C   0  0  0  0  0  0  0  0  0  0  0  0
    9.9750    2.4208    0.0000 O   0  0  0  0  0  0  0  0  0  0  0  0
   13.5375    2.8333    0.0000 O   0  0  0  0  0  0  0  0  0  0  0  0
   13.8250    1.9708    0.0000 O   0  0  0  0  0  0  0  0  0  0  0  0
   11.4000   -0.8792    0.0000 O   0  0  0  0  0  0  0  0  0  0  0  0
   15.6917   -2.5417    0.0000 O   0  0  0  0  0  0  0  0  0  0  0  0
    8.5500    1.5958    0.0000 C   0  0  0  0  0  0  0  0  0  0  0  0
   12.1125    2.8333    0.0000 O   0  0  0  0  0  0  0  0  0  0  0  0
   14.3750    0.7833    0.0000 C   0  0  0  0  0  0  0  0  0  0  0  0
    8.5500   -0.8792    0.0000 O   0  0  0  0  0  0  0  0  0  0  0  0
   14.2375   -3.3625    0.0000 C   0  0  0  0  0  0  0  0  0  0  0  0
    7.8250    1.1833    0.0000 C   0  0  0  0  0  0  0  0  0  0  0  0
    7.8250    0.3583    0.0000 C   0  0  0  0  0  0  0  0  0  0  0  0
   15.6833   -0.0500    0.0000 C   0  0  0  0  0  0  0  0  0  0  0  0
   16.4000   -1.2833    0.0000 C   0  0  0  0  0  0  0  0  0  0  0  0
   12.1125    3.6708    0.0000 C   0  0  0  0  0  0  0  0  0  0  0  0
   15.1125    1.2833    0.0000 C   0  0  0  0  0  0  0  0  0  0  0  0
   16.0417    0.7208    0.0000 Cl  0  0  0  0  0  0  0  0  0  0  0  0
  2  1  1  0  0  0  0
  3  1  2  0  0  0  0
  4  8  2  0  0  0  0
  5  4  1  0  0  0  0
  6  5  1  0  0  0  0
  7  2  1  0  0  0  0
  8  1  1  0  0  0  0
  9  3  1  0  0  0  0
 10  9  1  0  0  0  0
 11 17  1  0  0  0  0
 12  4  1  0  0  0  0
 13 19  1  0  0  0  0
 14  3  1  0  0  0  0
 15 13  1  0  0  0  0
 16 22  1  1  0  0  0
 17 12  1  0  0  0  0
 18 16  1  0  0  0  0
 19 16  1  0  0  0  0
  6 20  1  1  0  0  0
 21 18  1  0  0  0  0
 12 22  1  6  0  0  0
 23  2  2  0  0  0  0
 13 24  1  6  0  0  0
 25  7  1  0  0  0  0
 26  9  2  0  0  0  0
 27 20  2  0  0  0  0
 11 28  1  6  0  0  0
 29  8  1  0  0  0  0
 15 30  1  6  0  0  0
 31 10  1  0  0  0  0
 32 20  1  0  0  0  0
 11 33  1  1  0  0  0
 34 25  1  0  0  0  0
 21 35  1  6  0  0  0
 36 31  2  0  0  0  0
 37 25  2  0  0  0  0
 38 24  1  0  0  0  0
 39 24  1  0  0  0  0
 40 32  1  0  0  0  0
 41 33  1  0  0  0  0
  5 14  2  0  0  0  0
  7 10  2  0  0  0  0
 37 36  1  0  0  0  0
 11  6  1  0  0  0  0
 21 15  1  0  0  0  0
M  END
> <#>
32

> <PLATE>
LAT001

> <ROW>
H

> <COL>
5

> <COORD>
H05

> <LATID>
LAT001H05

> <Supplier>
Microsource

> <Suplier_CAT#>
00200022

> <Name>
Aklavine Hydrochloride

> <Concentration_(mM)>
2.5

> <IC50_(µM)>
22

> <Yeast_Active?>
-

> <Pubchem_CID>
264889

> <Description>
Antibiotic, Antineoplastic

> <Source>
Natural Product; ex Actinomyces spp

$$$$
