
  -ISIS-  08130814242D

 19 21  0  0  0  0  0  0  0  0999 V2000
    2.0770   -6.0659    0.0000 C   0  0  0  0  0  0  0  0  0  0  0  0
    1.4520   -4.9833    0.0000 C   0  0  0  0  0  0  0  0  0  0  0  0
    2.0770   -3.9008    0.0000 C   0  0  0  0  0  0  0  0  0  0  0  0
    3.3270   -3.9008    0.0000 C   0  0  0  0  0  0  0  0  0  0  0  0
    3.9520   -4.9833    0.0000 C   0  0  0  0  0  0  0  0  0  0  0  0
    5.2020   -4.9833    0.0000 C   0  0  0  0  0  0  0  0  0  0  0  0
    5.8270   -6.0659    0.0000 C   0  0  0  0  0  0  0  0  0  0  0  0
    5.2020   -7.1484    0.0000 C   0  0  0  0  0  0  0  0  0  0  0  0
    3.9520   -7.1484    0.0000 C   0  0  0  0  0  0  0  0  0  0  0  0
    3.3270   -6.0659    0.0000 C   0  0  0  0  0  0  0  0  0  0  0  0
    0.2020   -4.9833    0.0000 O   0  0  0  0  0  0  0  0  0  0  0  0
    7.0770   -6.0659    0.0000 C   0  0  0  0  0  0  0  0  0  0  0  0
    7.7020   -4.9833    0.0000 C   0  0  0  0  0  0  0  0  0  0  0  0
    7.0770   -3.9008    0.0000 C   0  0  0  0  0  0  0  0  0  0  0  0
    7.7020   -2.8183    0.0000 C   0  0  0  0  0  0  0  0  0  0  0  0
    8.9520   -2.8183    0.0000 C   0  0  0  0  0  0  0  0  0  0  0  0
    9.5770   -3.9008    0.0000 C   0  0  0  0  0  0  0  0  0  0  0  0
    8.9520   -4.9833    0.0000 C   0  0  0  0  0  0  0  0  0  0  0  0
    7.7020   -7.1484    0.0000 O   0  0  0  0  0  0  0  0  0  0  0  0
  1  2  1  0  0  0  0
  2  3  2  0  0  0  0
  3  4  1  0  0  0  0
  4  5  2  0  0  0  0
  5  6  1  0  0  0  0
  6  7  2  0  0  0  0
  7  8  1  0  0  0  0
  8  9  2  0  0  0  0
  9 10  1  0  0  0  0
  1 10  2  0  0  0  0
  5 10  1  0  0  0  0
  2 11  1  0  0  0  0
 12 13  1  0  0  0  0
 13 14  1  0  0  0  0
 14 15  2  0  0  0  0
 15 16  1  0  0  0  0
 16 17  2  0  0  0  0
 17 18  1  0  0  0  0
 13 18  2  0  0  0  0
 12 19  2  0  0  0  0
  7 12  1  0  0  0  0
M  END
> <#>
366

> <PLATE>
LAT005

> <ROW>
F

> <COL>
7

> <COORD>
F07

> <LATID>
LAT005F07

> <Supplier>
Aldrich

> <Suplier_CAT#>
190608

> <Name>
6-Benzoyl-2-Naphthol

> <Concentration_(mM)>
2.5

> <IC50_(µM)>
83

> <Yeast_Active?>
-

> <Pubchem_CID>
93271

$$$$
