
  -ISIS-  08130814242D

 22 23  0  0  0  0  0  0  0  0999 V2000
   -1.1625   -1.0292    0.0000 C   0  0  0  0  0  0  0  0  0  0  0  0
   -1.1458   -0.1667    0.0000 C   0  0  0  0  0  0  0  0  0  0  0  0
   -1.9083   -1.4500    0.0000 N   0  0  0  0  0  0  0  0  0  0  0  0
   -1.8833    0.2708    0.0000 C   0  0  0  0  0  0  0  0  0  0  0  0
   -0.4000    0.2708    0.0000 C   0  0  0  0  0  0  0  0  0  0  0  0
    0.3542    0.7125    0.0000 N   0  0  0  0  0  0  0  0  0  0  0  0
   -0.4000   -1.4875    0.0000 S   0  0  0  0  0  0  0  0  0  0  0  0
    1.8375   -1.0667    0.0000 C   0  0  0  0  0  0  0  0  0  0  0  0
    1.8375   -0.2292    0.0000 C   0  0  0  0  0  0  0  0  0  0  0  0
    2.5792    0.2125    0.0000 C   0  0  0  0  0  0  0  0  0  0  0  0
    1.0792   -1.4875    0.0000 C   0  0  0  0  0  0  0  0  0  0  0  0
   -2.6458   -1.0042    0.0000 C   0  0  0  0  0  0  0  0  0  0  0  0
   -2.6458   -0.1500    0.0000 C   0  0  0  0  0  0  0  0  0  0  0  0
    3.3375   -0.2042    0.0000 C   0  0  0  0  0  0  0  0  0  0  0  0
    0.3542   -1.0667    0.0000 C   0  0  0  0  0  0  0  0  0  0  0  0
    2.5792   -1.5042    0.0000 C   0  0  0  0  0  0  0  0  0  0  0  0
    1.0792   -2.3500    0.0000 O   0  0  0  0  0  0  0  0  0  0  0  0
    3.3167   -1.0875    0.0000 C   0  0  0  0  0  0  0  0  0  0  0  0
    2.5792    1.0708    0.0000 O   0  0  0  0  0  0  0  0  0  0  0  0
    4.1000    0.2333    0.0000 O   0  0  0  0  0  0  0  0  0  0  0  0
   -1.8833    1.1333    0.0000 C   0  0  0  0  0  0  0  0  0  0  0  0
   -3.4000   -1.4292    0.0000 C   0  0  0  0  0  0  0  0  0  0  0  0
  2  1  2  0  0  0  0
  3  1  1  0  0  0  0
  4  2  1  0  0  0  0
  5  2  1  0  0  0  0
  6  5  3  0  0  0  0
  7  1  1  0  0  0  0
  8 11  1  0  0  0  0
  9  8  2  0  0  0  0
 10  9  1  0  0  0  0
 11 15  1  0  0  0  0
 12  3  2  0  0  0  0
 13 12  1  0  0  0  0
 14 18  1  0  0  0  0
 15  7  1  0  0  0  0
 16  8  1  0  0  0  0
 17 11  2  0  0  0  0
 18 16  2  0  0  0  0
 19 10  1  0  0  0  0
 20 14  1  0  0  0  0
 21  4  1  0  0  0  0
 22 12  1  0  0  0  0
  4 13  2  0  0  0  0
 10 14  2  0  0  0  0
M  END
> <#>
1185

> <PLATE>
LAT015

> <ROW>
A

> <COL>
10

> <COORD>
A10

> <LATID>
LAT015A10

> <Supplier>
Chembridge

> <Suplier_CAT#>
5484218

> <Name>
Novel

> <Concentration_(mM)>
2.5

> <IC50_(µM)>
inactive

> <Yeast_Active?>
-

> <Pubchem_CID>
720372

$$$$
