
  -ISIS-  08130814242D

 20 21  0  0  0  0  0  0  0  0999 V2000
    0.4500   -0.5375    0.0000 C   0  0  0  0  0  0  0  0  0  0  0  0
    0.4500   -1.1375    0.0000 C   0  0  0  0  0  0  0  0  0  0  0  0
   -0.0708   -0.2375    0.0000 C   0  0  0  0  0  0  0  0  0  0  0  0
   -0.0708   -1.4375    0.0000 N   0  0  3  0  0  0  0  0  0  0  0  0
    0.9667   -0.2375    0.0000 N   0  3  0  0  0  0  0  0  0  0  0  0
   -0.5958   -0.5375    0.0000 C   0  0  0  0  0  0  0  0  0  0  0  0
   -0.5958   -1.1375    0.0000 C   0  0  0  0  0  0  0  0  0  0  0  0
   -0.0708    0.3833    0.0000 N   0  0  3  0  0  0  0  0  0  0  0  0
    0.9667   -1.4542    0.0000 O   0  0  0  0  0  0  0  0  0  0  0  0
    1.4875   -0.5375    0.0000 O   0  5  0  0  0  0  0  0  0  0  0  0
    0.9667    0.3625    0.0000 O   0  0  0  0  0  0  0  0  0  0  0  0
   -0.0708   -2.0542    0.0000 C   0  0  0  0  0  0  0  0  0  0  0  0
   -1.1125   -0.2375    0.0000 C   0  0  0  0  0  0  0  0  0  0  0  0
   -1.1125   -1.4375    0.0000 C   0  0  0  0  0  0  0  0  0  0  0  0
    0.4500    0.6833    0.0000 C   0  0  0  0  0  0  0  0  0  0  0  0
   -0.5958    0.6833    0.0000 C   0  0  0  0  0  0  0  0  0  0  0  0
   -1.6333   -0.5375    0.0000 C   0  0  0  0  0  0  0  0  0  0  0  0
   -0.5958    1.2833    0.0000 C   0  0  0  0  0  0  0  0  0  0  0  0
    0.4500    1.2833    0.0000 C   0  0  0  0  0  0  0  0  0  0  0  0
   -1.6333   -1.1375    0.0000 C   0  0  0  0  0  0  0  0  0  0  0  0
  2  1  1  0  0  0  0
  3  1  2  0  0  0  0
  4  2  1  0  0  0  0
  5  1  1  0  0  0  0
  6  3  1  0  0  0  0
  7  6  2  0  0  0  0
  8  3  1  0  0  0  0
  9  2  2  0  0  0  0
 10  5  1  0  0  0  0
 11  5  2  0  0  0  0
 12  4  1  0  0  0  0
 13  6  1  0  0  0  0
 14  7  1  0  0  0  0
 15  8  1  0  0  0  0
 16  8  1  0  0  0  0
 17 13  2  0  0  0  0
 18 16  1  0  0  0  0
 19 15  1  0  0  0  0
 20 17  1  0  0  0  0
  4  7  1  0  0  0  0
 20 14  2  0  0  0  0
M  CHG  2   5   1  10  -1
M  END
> <#>
891

> <PLATE>
LAT012

> <ROW>
C

> <COL>
3

> <COORD>
C03

> <LATID>
LAT012C03

> <Supplier>
Chembridge

> <Suplier_CAT#>
5712283

> <Name>
Novel

> <Sec_Name>
225_D09

> <Concentration_(mM)>
2.5

> <IC50_(µM)>
31

> <Yeast_Active?>
-

> <Pubchem_CID>
NULL

$$$$
