
  -ISIS-  08130814242D

 18 19  0  0  0  0  0  0  0  0999 V2000
    1.3292   -0.7667    0.0000 C   0  0  0  0  0  0  0  0  0  0  0  0
    0.3542   -0.7667    0.0000 C   0  0  0  0  0  0  0  0  0  0  0  0
    1.6667   -1.4375    0.0000 C   0  0  0  0  0  0  0  0  0  0  0  0
   -1.1000    0.0708    0.0000 N   0  0  0  0  0  0  0  0  0  0  0  0
   -0.1208    0.0708    0.0000 N   0  0  0  0  0  0  0  0  0  0  0  0
   -1.6000    0.9000    0.0000 C   0  0  0  0  0  0  0  0  0  0  0  0
    2.6667   -0.0917    0.0000 C   0  0  0  0  0  0  0  0  0  0  0  0
    2.5667   -1.5500    0.0000 O   0  0  0  0  0  0  0  0  0  0  0  0
    3.0167   -0.7667    0.0000 C   0  0  0  0  0  0  0  0  0  0  0  0
   -2.5833    0.9000    0.0000 C   0  0  0  0  0  0  0  0  0  0  0  0
   -3.1000    0.0625    0.0000 N   0  0  0  0  0  0  0  0  0  0  0  0
   -0.1125   -1.6042    0.0000 O   0  0  0  0  0  0  0  0  0  0  0  0
    1.2542   -1.9875    0.0000 C   0  0  0  0  0  0  0  0  0  0  0  0
   -1.1125    1.7500    0.0000 C   0  0  0  0  0  0  0  0  0  0  0  0
   -4.0625    0.0708    0.0000 C   0  0  0  0  0  0  0  0  0  0  0  0
   -3.0958    1.7500    0.0000 C   0  0  0  0  0  0  0  0  0  0  0  0
   -4.5625    0.9000    0.0000 C   0  0  0  0  0  0  0  0  0  0  0  0
   -4.0708    1.7500    0.0000 C   0  0  0  0  0  0  0  0  0  0  0  0
  2  1  1  0  0  0  0
  3  1  2  0  0  0  0
  4  5  1  0  0  0  0
  5  2  1  0  0  0  0
  6  4  2  0  0  0  0
  7  1  1  0  0  0  0
  8  3  1  0  0  0  0
  9  7  2  0  0  0  0
 10  6  1  0  0  0  0
 11 10  1  0  0  0  0
 12  2  2  0  0  0  0
 13  3  1  0  0  0  0
 14  6  1  0  0  0  0
 15 11  2  0  0  0  0
 16 10  2  0  0  0  0
 17 18  2  0  0  0  0
 18 16  1  0  0  0  0
  9  8  1  0  0  0  0
 17 15  1  0  0  0  0
M  END
> <#>
791

> <PLATE>
LAT010

> <ROW>
G

> <COL>
10

> <COORD>
G10

> <LATID>
LAT010G10

> <Supplier>
Chembridge

> <Suplier_CAT#>
5630230

> <Name>
Novel

> <Sec_Name>
191_D11

> <Concentration_(mM)>
2.5

> <IC50_(µM)>
inactive

> <Yeast_Active?>
-

> <Pubchem_CID>
872763

$$$$
