
  -ISIS-  08130814242D

 34 36  0  0  0  0  0  0  0  0999 V2000
    2.8625    5.8042    0.0000 C   0  0  0  0  0  0  0  0  0  0  0  0
    3.6125    5.8042    0.0000 C   0  0  0  0  0  0  0  0  0  0  0  0
    2.4875    6.4542    0.0000 C   0  0  0  0  0  0  0  0  0  0  0  0
    2.8625    7.1042    0.0000 N   0  0  0  0  0  0  0  0  0  0  0  0
    3.9875    5.1542    0.0000 C   0  0  3  0  0  0  0  0  0  0  0  0
    3.6125    7.1042    0.0000 C   0  0  0  0  0  0  0  0  0  0  0  0
    3.9875    6.4542    0.0000 C   0  0  0  0  0  0  0  0  0  0  0  0
    2.4875    5.1542    0.0000 C   0  0  0  0  0  0  0  0  0  0  0  0
    2.1125    4.5042    0.0000 N   0  0  0  0  0  0  0  0  0  0  0  0
    3.9875    7.7542    0.0000 C   0  0  0  0  0  0  0  0  0  0  0  0
    1.7375    6.4542    0.0000 S   0  0  0  0  0  0  0  0  0  0  0  0
    0.2375    7.7542    0.0000 C   0  0  0  0  0  0  0  0  0  0  0  0
    4.7375    7.7542    0.0000 C   0  0  0  0  0  0  0  0  0  0  0  0
    0.6125    8.4042    0.0000 C   0  0  0  0  0  0  0  0  0  0  0  0
    0.2375    9.0542    0.0000 C   0  0  0  0  0  0  0  0  0  0  0  0
    5.1125    8.4042    0.0000 C   0  0  0  0  0  0  0  0  0  0  0  0
    0.6125    7.1042    0.0000 C   0  0  0  0  0  0  0  0  0  0  0  0
   -0.5125    9.0542    0.0000 C   0  0  0  0  0  0  0  0  0  0  0  0
    4.7375    9.0542    0.0000 C   0  0  0  0  0  0  0  0  0  0  0  0
    1.3625    7.1042    0.0000 C   0  0  0  0  0  0  0  0  0  0  0  0
    3.6125    8.4042    0.0000 C   0  0  0  0  0  0  0  0  0  0  0  0
   -0.5125    7.7542    0.0000 C   0  0  0  0  0  0  0  0  0  0  0  0
    0.2375    6.4542    0.0000 O   0  0  0  0  0  0  0  0  0  0  0  0
    4.7125    5.3417    0.0000 F   0  0  0  0  0  0  0  0  0  0  0  0
    3.3042    4.8417    0.0000 F   0  0  0  0  0  0  0  0  0  0  0  0
    4.2417    4.4542    0.0000 F   0  0  0  0  0  0  0  0  0  0  0  0
   -0.8875    8.4042    0.0000 C   0  0  0  0  0  0  0  0  0  0  0  0
    3.9875    9.0542    0.0000 C   0  0  0  0  0  0  0  0  0  0  0  0
    0.6125    9.7042    0.0000 O   0  0  0  0  0  0  0  0  0  0  0  0
    5.8625    8.4042    0.0000 O   0  0  0  0  0  0  0  0  0  0  0  0
   -0.8875    9.7042    0.0000 O   0  0  0  0  0  0  0  0  0  0  0  0
    5.1125    9.7042    0.0000 O   0  0  0  0  0  0  0  0  0  0  0  0
    6.2375    7.7542    0.0000 C   0  0  0  0  0  0  0  0  0  0  0  0
    4.7375   10.3542    0.0000 C   0  0  0  0  0  0  0  0  0  0  0  0
  2  1  2  0  0  0  0
  3  1  1  0  0  0  0
  4  3  2  0  0  0  0
  5  2  1  0  0  0  0
  6  4  1  0  0  0  0
  7  2  1  0  0  0  0
  8  1  1  0  0  0  0
  9  8  3  0  0  0  0
 10  6  1  0  0  0  0
 11  3  1  0  0  0  0
 12 17  1  0  0  0  0
 13 10  2  0  0  0  0
 14 12  1  0  0  0  0
 15 14  2  0  0  0  0
 16 13  1  0  0  0  0
 17 20  1  0  0  0  0
 18 27  2  0  0  0  0
 19 28  1  0  0  0  0
 20 11  1  0  0  0  0
 21 10  1  0  0  0  0
 22 12  2  0  0  0  0
 23 17  2  0  0  0  0
 24  5  1  0  0  0  0
 25  5  1  0  0  0  0
 26  5  1  0  0  0  0
 27 22  1  0  0  0  0
 28 21  2  0  0  0  0
 29 15  1  0  0  0  0
 30 16  1  0  0  0  0
 31 18  1  0  0  0  0
 32 19  1  0  0  0  0
 33 30  1  0  0  0  0
 34 32  1  0  0  0  0
  7  6  2  0  0  0  0
 16 19  2  0  0  0  0
 15 18  1  0  0  0  0
M  END
> <#>
1396

> <PLATE>
LAT018

> <ROW>
D

> <COL>
6

> <COORD>
D06

> <LATID>
LAT018D06

> <Supplier>
Chembridge

> <Suplier_CAT#>
7903877

> <Name>
Novel

> <Concentration_(mM)>
2.5

> <IC50_(µM)>
inactive

> <Yeast_Active?>
+

> <Pubchem_CID>
1301855

$$$$
