
  -ISIS-  08130814242D

 16 17  0  0  0  0  0  0  0  0999 V2000
    1.7667   -0.8917    0.0000 C   0  0  0  0  0  0  0  0  0  0  0  0
    1.7667   -0.0667    0.0000 C   0  0  0  0  0  0  0  0  0  0  0  0
    0.3417   -0.0667    0.0000 C   0  0  0  0  0  0  0  0  0  0  0  0
    0.3417   -0.8917    0.0000 C   0  0  0  0  0  0  0  0  0  0  0  0
    1.0542   -1.3042    0.0000 S   0  0  0  0  0  0  0  0  0  0  0  0
    2.4750   -1.3000    0.0000 N   0  0  0  0  0  0  0  0  0  0  0  0
    2.4750    0.3500    0.0000 C   0  0  0  0  0  0  0  0  0  0  0  0
    3.1875   -0.0667    0.0000 N   0  0  0  0  0  0  0  0  0  0  0  0
   -0.3750   -1.3000    0.0000 C   0  0  0  0  0  0  0  0  0  0  0  0
    3.1875   -0.8917    0.0000 C   0  0  0  0  0  0  0  0  0  0  0  0
    2.4750    1.1750    0.0000 N   0  0  0  0  0  0  0  0  0  0  0  0
   -0.3833   -2.1250    0.0000 O   0  0  0  0  0  0  0  0  0  0  0  0
   -0.2458    0.5208    0.0000 C   0  0  0  0  0  0  0  0  0  0  0  0
   -1.0875   -0.8875    0.0000 O   0  0  0  0  0  0  0  0  0  0  0  0
   -1.0875   -0.0625    0.0000 C   0  0  0  0  0  0  0  0  0  0  0  0
   -1.8000    0.3583    0.0000 C   0  0  0  0  0  0  0  0  0  0  0  0
  2  1  2  0  0  0  0
  3  2  1  0  0  0  0
  4  5  1  0  0  0  0
  5  1  1  0  0  0  0
  6  1  1  0  0  0  0
  7  2  1  0  0  0  0
  8 10  1  0  0  0  0
  9  4  1  0  0  0  0
 10  6  2  0  0  0  0
 11  7  2  0  0  0  0
 12  9  2  0  0  0  0
 13  3  1  0  0  0  0
 14  9  1  0  0  0  0
 15 14  1  0  0  0  0
 16 15  1  0  0  0  0
  4  3  2  0  0  0  0
  7  8  1  0  0  0  0
M  END
> <#>
1841

> <PLATE>
LAT024

> <ROW>
A

> <COL>
2

> <COORD>
A02

> <LATID>
LAT024A02

> <Supplier>
Chembridge

> <Suplier_CAT#>
5705665

> <Name>
Novel

> <Sec_Name>
224_C06

> <Concentration_(mM)>
2.5

> <IC50_(µM)>
18

> <Yeast_Active?>
-

> <Pubchem_CID>
NULL

$$$$
