
  -ISIS-  08130814242D

 23 24  0  0  0  0  0  0  0  0999 V2000
    1.9042   -0.1292    0.0000 N   0  0  3  0  0  0  0  0  0  0  0  0
    1.0667   -0.1292    0.0000 C   0  0  3  0  0  0  0  0  0  0  0  0
    0.6500   -0.8500    0.0000 C   0  0  3  0  0  0  0  0  0  0  0  0
   -0.2125   -0.8500    0.0000 C   0  0  0  0  0  0  0  0  0  0  0  0
    0.6500    0.6125    0.0000 C   0  0  0  0  0  0  0  0  0  0  0  0
   -0.6333   -0.1292    0.0000 C   0  0  0  0  0  0  0  0  0  0  0  0
   -0.6333   -1.5667    0.0000 C   0  0  0  0  0  0  0  0  0  0  0  0
   -1.8958   -0.8500    0.0000 C   0  0  0  0  0  0  0  0  0  0  0  0
    1.0667   -1.5875    0.0000 O   0  0  0  0  0  0  0  0  0  0  0  0
   -1.4708   -1.5667    0.0000 C   0  0  0  0  0  0  0  0  0  0  0  0
   -1.4708   -0.1292    0.0000 C   0  0  0  0  0  0  0  0  0  0  0  0
   -2.7333   -0.8500    0.0000 Cl  0  0  0  0  0  0  0  0  0  0  0  0
    2.3292   -0.8667    0.0000 C   0  0  0  0  0  0  0  0  0  0  0  0
    2.3292    0.5958    0.0000 C   0  0  0  0  0  0  0  0  0  0  0  0
    1.0667    1.3333    0.0000 C   0  0  0  0  0  0  0  0  0  0  0  0
   -0.2125    0.6125    0.0000 C   0  0  0  0  0  0  0  0  0  0  0  0
    3.1667    0.5958    0.0000 C   0  0  0  0  0  0  0  0  0  0  0  0
    3.1667   -0.8667    0.0000 C   0  0  0  0  0  0  0  0  0  0  0  0
   -0.6333    1.3333    0.0000 C   0  0  0  0  0  0  0  0  0  0  0  0
    0.6500    2.0500    0.0000 C   0  0  0  0  0  0  0  0  0  0  0  0
    3.5875   -0.1500    0.0000 C   0  0  0  0  0  0  0  0  0  0  0  0
   -0.2125    2.0500    0.0000 C   0  0  0  0  0  0  0  0  0  0  0  0
    3.2042   -2.4500    0.0000 Cl  0  0  0  0  0  0  0  0  0  0  0  0
  2  1  1  0  0  0  0
  3  2  1  0  0  0  0
  4  3  1  0  0  0  0
  5  2  1  0  0  0  0
  6  4  2  0  0  0  0
  7  4  1  0  0  0  0
  8 10  1  0  0  0  0
  9  3  1  0  0  0  0
 10  7  2  0  0  0  0
 11  6  1  0  0  0  0
 12  8  1  0  0  0  0
 13  1  1  0  0  0  0
 14  1  1  0  0  0  0
 15  5  2  0  0  0  0
 16  5  1  0  0  0  0
 17 14  1  0  0  0  0
 18 13  1  0  0  0  0
 19 16  2  0  0  0  0
 20 15  1  0  0  0  0
 21 17  1  0  0  0  0
 22 19  1  0  0  0  0
 18 21  1  0  0  0  0
 20 22  2  0  0  0  0
 11  8  2  0  0  0  0
M  END
> <#>
1988

> <PLATE>
LAT025

> <ROW>
D

> <COL>
10

> <COORD>
D10

> <LATID>
LAT025D10

> <Supplier>
Chembridge

> <Suplier_CAT#>
5510852

> <Sec_Name>
146_D06

> <Concentration_(mM)>
2.5

> <IC50_(µM)>
inactive

> <Yeast_Active?>
-

> <Pubchem_CID>
411018

$$$$
