
  -ISIS-  08130814242D

 18 19  0  0  0  0  0  0  0  0999 V2000
   -1.3125    1.1000    0.0000 C   0  0  0  0  0  0  0  0  0  0  0  0
   -0.6708    0.7208    0.0000 C   0  0  0  0  0  0  0  0  0  0  0  0
   -1.3125    1.8208    0.0000 C   0  0  0  0  0  0  0  0  0  0  0  0
   -0.0333    1.1000    0.0000 C   0  0  0  0  0  0  0  0  0  0  0  0
   -1.9500    2.1833    0.0000 C   0  0  0  0  0  0  0  0  0  0  0  0
   -1.9500    0.7458    0.0000 C   0  0  0  0  0  0  0  0  0  0  0  0
    0.6042    0.7458    0.0000 C   0  0  0  0  0  0  0  0  0  0  0  0
   -0.6708    0.0000    0.0000 O   0  0  0  0  0  0  0  0  0  0  0  0
    1.2500    1.1000    0.0000 C   0  0  0  0  0  0  0  0  0  0  0  0
   -2.5958    1.8208    0.0000 C   0  0  0  0  0  0  0  0  0  0  0  0
   -0.6958    2.2083    0.0000 O   0  0  0  0  0  0  0  0  0  0  0  0
   -2.5958    1.1000    0.0000 C   0  0  0  0  0  0  0  0  0  0  0  0
    1.2500    1.8458    0.0000 F   0  0  0  0  0  0  0  0  0  0  0  0
   -3.2500    2.1625    0.0000 O   0  0  0  0  0  0  0  0  0  0  0  0
    0.6042    0.0000    0.0000 C   0  0  0  0  0  0  0  0  0  0  0  0
    1.8875    0.7458    0.0000 C   0  0  0  0  0  0  0  0  0  0  0  0
    1.2292   -0.3542    0.0000 C   0  0  0  0  0  0  0  0  0  0  0  0
    1.8875    0.0000    0.0000 C   0  0  0  0  0  0  0  0  0  0  0  0
  2  1  1  0  0  0  0
  3  1  2  0  0  0  0
  4  2  1  0  0  0  0
  5  3  1  0  0  0  0
  6  1  1  0  0  0  0
  7  4  1  0  0  0  0
  8  2  2  0  0  0  0
  9  7  2  0  0  0  0
 10 12  1  0  0  0  0
 11  3  1  0  0  0  0
 12  6  2  0  0  0  0
 13  9  1  0  0  0  0
 14 10  1  0  0  0  0
 15  7  1  0  0  0  0
 16  9  1  0  0  0  0
 17 15  2  0  0  0  0
 18 17  1  0  0  0  0
  5 10  2  0  0  0  0
 16 18  2  0  0  0  0
M  END
> <#>
1311

> <PLATE>
LAT017

> <ROW>
G

> <COL>
5

> <COORD>
G05

> <LATID>
LAT017G05

> <Supplier>
Chembridge

> <Suplier_CAT#>
6872359

> <Name>
Novel

> <Concentration_(mM)>
2.5

> <IC50_(µM)>
67

> <Yeast_Active?>
-

> <Pubchem_CID>
798879

$$$$
