
  -ISIS-  08130814242D

 16 16  0  0  0  0  0  0  0  0999 V2000
    5.0292   -3.7917    0.0000 C   0  0  0  0  0  0  0  0  0  0  0  0
    5.7500   -2.5542    0.0000 C   0  0  0  0  0  0  0  0  0  0  0  0
    5.7500   -3.3792    0.0000 N   0  0  0  0  0  0  0  0  0  0  0  0
    4.3167   -3.3792    0.0000 N   0  0  0  0  0  0  0  0  0  0  0  0
    5.0292   -2.1417    0.0000 N   0  0  0  0  0  0  0  0  0  0  0  0
    4.3167   -2.5542    0.0000 C   0  0  0  0  0  0  0  0  0  0  0  0
    6.4625   -2.1375    0.0000 N   0  0  0  0  0  0  0  0  0  0  0  0
    5.0292   -4.6167    0.0000 N   0  0  0  0  0  0  0  0  0  0  0  0
    3.6042   -2.1417    0.0000 O   0  0  0  0  0  0  0  0  0  0  0  0
    7.1792   -2.5417    0.0000 C   0  0  3  0  0  0  0  0  0  0  0  0
    4.3167   -5.0292    0.0000 C   0  0  3  0  0  0  0  0  0  0  0  0
    3.6042   -1.3167    0.0000 C   0  0  0  0  0  0  0  0  0  0  0  0
    7.8917   -2.1292    0.0000 C   0  0  0  0  0  0  0  0  0  0  0  0
    7.1792   -3.3667    0.0000 C   0  0  0  0  0  0  0  0  0  0  0  0
    4.3167   -5.8542    0.0000 C   0  0  0  0  0  0  0  0  0  0  0  0
    3.6042   -4.6167    0.0000 C   0  0  0  0  0  0  0  0  0  0  0  0
  2  3  1  0  0  0  0
  3  1  2  0  0  0  0
  4  1  1  0  0  0  0
  5  6  1  0  0  0  0
  6  4  2  0  0  0  0
  7  2  1  0  0  0  0
  8  1  1  0  0  0  0
  9  6  1  0  0  0  0
 10  7  1  0  0  0  0
 11  8  1  0  0  0  0
 12  9  1  0  0  0  0
 13 10  1  0  0  0  0
 14 10  1  0  0  0  0
 15 11  1  0  0  0  0
 16 11  1  0  0  0  0
  2  5  2  0  0  0  0
M  END
> <#>
180

> <PLATE>
LAT003

> <ROW>
D

> <COL>
4

> <COORD>
D04

> <LATID>
LAT003D04

> <Supplier>
Microsource

> <Suplier_CAT#>
00330034

> <Name>
Prometon

> <Concentration_(mM)>
2.5

> <IC50_(µM)>
inactive

> <Yeast_Active?>
-

> <Pubchem_CID>
4928

> <Description>
Herbicide

> <Comment>
PS II Target

$$$$
