
  -ISIS-  08130814242D

 22 23  0  0  0  0  0  0  0  0999 V2000
   -3.0000    0.3708    0.0000 C   0  0  0  0  0  0  0  0  0  0  0  0
   -3.4458    0.7958    0.0000 C   0  0  0  0  0  0  0  0  0  0  0  0
   -0.3833    0.2333    0.0000 C   0  0  0  0  0  0  0  0  0  0  0  0
   -4.0208    0.6333    0.0000 C   0  0  0  0  0  0  0  0  0  0  0  0
   -2.3833    0.5125    0.0000 C   0  0  0  0  0  0  0  0  0  0  0  0
   -0.8625   -0.1667    0.0000 O   0  0  0  0  0  0  0  0  0  0  0  0
   -1.3833    0.1958    0.0000 C   0  0  0  0  0  0  0  0  0  0  0  0
    0.2167    0.0708    0.0000 C   0  0  0  0  0  0  0  0  0  0  0  0
   -0.5833    0.7958    0.0000 C   0  0  0  0  0  0  0  0  0  0  0  0
   -1.9708    0.0500    0.0000 C   0  0  0  0  0  0  0  0  0  0  0  0
   -3.1625   -0.2292    0.0000 C   0  0  0  0  0  0  0  0  0  0  0  0
   -1.2000    0.7708    0.0000 C   0  0  0  0  0  0  0  0  0  0  0  0
   -4.1833    0.0500    0.0000 C   0  0  0  0  0  0  0  0  0  0  0  0
   -2.2000    1.0958    0.0000 O   0  0  0  0  0  0  0  0  0  0  0  0
    0.4000   -0.5042    0.0000 O   0  0  0  0  0  0  0  0  0  0  0  0
   -3.7625   -0.3875    0.0000 C   0  0  0  0  0  0  0  0  0  0  0  0
   -4.4458    1.0958    0.0000 O   0  0  0  0  0  0  0  0  0  0  0  0
   -3.3000    1.4125    0.0000 O   0  0  0  0  0  0  0  0  0  0  0  0
    0.6375    0.5125    0.0000 O   0  0  0  0  0  0  0  0  0  0  0  0
   -4.8000   -0.1292    0.0000 O   0  0  0  0  0  0  0  0  0  0  0  0
    1.2375    0.3708    0.0000 C   0  0  0  0  0  0  0  0  0  0  0  0
    1.6542    0.8125    0.0000 C   0  0  0  0  0  0  0  0  0  0  0  0
  2  1  2  0  0  0  0
  3  6  1  0  0  0  0
  4  2  1  0  0  0  0
  5  1  1  0  0  0  0
  6  7  1  0  0  0  0
  7 10  1  0  0  0  0
  8  3  1  0  0  0  0
  9 12  1  0  0  0  0
 10  5  1  0  0  0  0
 11  1  1  0  0  0  0
 12  7  2  0  0  0  0
 13 16  1  0  0  0  0
 14  5  2  0  0  0  0
 15  8  2  0  0  0  0
 16 11  2  0  0  0  0
 17  4  1  0  0  0  0
 18  2  1  0  0  0  0
 19  8  1  0  0  0  0
 20 13  1  0  0  0  0
 21 19  1  0  0  0  0
 22 21  1  0  0  0  0
  4 13  2  0  0  0  0
  3  9  2  0  0  0  0
M  END
> <#>
1312

> <PLATE>
LAT017

> <ROW>
H

> <COL>
5

> <COORD>
H05

> <LATID>
LAT017H05

> <Supplier>
Chembridge

> <Suplier_CAT#>
6877599

> <Name>
Novel

> <Concentration_(mM)>
2.5

> <IC50_(µM)>
inactive

> <Yeast_Active?>
-

> <Pubchem_CID>
854609

$$$$
