
  -ISIS-  08130814242D

 17 17  0  0  0  0  0  0  0  0999 V2000
   -1.6208   -0.4542    0.0000 C   0  0  0  0  0  0  0  0  0  0  0  0
   -1.6208    0.3625    0.0000 N   0  0  0  0  0  0  0  0  0  0  0  0
   -2.3208    0.7625    0.0000 N   0  0  0  0  0  0  0  0  0  0  0  0
   -3.0625    1.9833    0.0000 C   0  0  0  0  0  0  0  0  0  0  0  0
   -3.0625    2.8000    0.0000 C   0  0  0  0  0  0  0  0  0  0  0  0
   -2.3458    1.5833    0.0000 C   0  0  0  0  0  0  0  0  0  0  0  0
   -0.9208   -0.8542    0.0000 S   0  0  0  0  0  0  0  0  0  0  0  0
   -2.3208   -0.8542    0.0000 N   0  0  0  0  0  0  0  0  0  0  0  0
   -2.3625    3.2208    0.0000 O   0  0  0  0  0  0  0  0  0  0  0  0
   -3.7625    1.5833    0.0000 C   0  0  0  0  0  0  0  0  0  0  0  0
   -3.7625    3.2083    0.0000 C   0  0  0  0  0  0  0  0  0  0  0  0
   -0.9208   -1.6542    0.0000 C   0  0  0  0  0  0  0  0  0  0  0  0
   -0.2208   -2.0542    0.0000 C   0  0  0  0  0  0  0  0  0  0  0  0
   -0.2208   -2.8792    0.0000 C   0  0  0  0  0  0  0  0  0  0  0  0
   -4.4708    2.0000    0.0000 C   0  0  0  0  0  0  0  0  0  0  0  0
    0.4792   -3.2792    0.0000 C   0  0  0  0  0  0  0  0  0  0  0  0
   -4.4708    2.7833    0.0000 C   0  0  0  0  0  0  0  0  0  0  0  0
  2  1  2  0  0  0  0
  3  2  1  0  0  0  0
  4  6  1  0  0  0  0
  5  4  2  0  0  0  0
  6  3  2  0  0  0  0
  7  1  1  0  0  0  0
  8  1  1  0  0  0  0
  9  5  1  0  0  0  0
 10  4  1  0  0  0  0
 11  5  1  0  0  0  0
 12  7  1  0  0  0  0
 13 12  1  0  0  0  0
 14 13  1  0  0  0  0
 15 10  2  0  0  0  0
 16 14  1  0  0  0  0
 17 15  1  0  0  0  0
 11 17  2  0  0  0  0
M  END
> <#>
608

> <PLATE>
LAT008

> <ROW>
H

> <COL>
7

> <COORD>
H07

> <LATID>
LAT008H07

> <Supplier>
Chembridge

> <Suplier_CAT#>
5524245

> <Name>
Novel

> <Sec_Name>
146_A08

> <Concentration_(mM)>
2.5

> <IC50_(µM)>
63

> <Yeast_Active?>
-

> <Pubchem_CID>
NULL

$$$$
