
  -ISIS-  08130814242D

 17 18  0  0  0  0  0  0  0  0999 V2000
    0.8375    1.0000    0.0000 C   0  0  0  0  0  0  0  0  0  0  0  0
    1.8667    1.0000    0.0000 C   0  0  0  0  0  0  0  0  0  0  0  0
   -0.6833    0.1208    0.0000 N   0  0  0  0  0  0  0  0  0  0  0  0
    2.5875    0.2458    0.0000 O   0  0  0  0  0  0  0  0  0  0  0  0
    0.3292    0.1208    0.0000 N   0  0  0  0  0  0  0  0  0  0  0  0
    0.3292    1.9125    0.0000 O   0  0  0  0  0  0  0  0  0  0  0  0
    2.4000    1.9125    0.0000 C   0  0  0  0  0  0  0  0  0  0  0  0
    3.5167    0.6833    0.0000 C   0  0  0  0  0  0  0  0  0  0  0  0
    3.3875    1.7208    0.0000 C   0  0  0  0  0  0  0  0  0  0  0  0
   -1.1958    1.0000    0.0000 C   0  0  0  0  0  0  0  0  0  0  0  0
   -2.2208    1.0000    0.0000 C   0  0  0  0  0  0  0  0  0  0  0  0
   -4.2833    1.0000    0.0000 C   0  0  0  0  0  0  0  0  0  0  0  0
   -5.3125    1.0000    0.0000 Cl  0  0  0  0  0  0  0  0  0  0  0  0
   -3.7958    1.8958    0.0000 C   0  0  0  0  0  0  0  0  0  0  0  0
   -3.7958    0.1208    0.0000 C   0  0  0  0  0  0  0  0  0  0  0  0
   -2.7458    1.8958    0.0000 C   0  0  0  0  0  0  0  0  0  0  0  0
   -2.7458    0.1208    0.0000 C   0  0  0  0  0  0  0  0  0  0  0  0
  2  1  1  0  0  0  0
  3  5  1  0  0  0  0
  4  2  1  0  0  0  0
  5  1  1  0  0  0  0
  6  1  2  0  0  0  0
  7  2  2  0  0  0  0
  8  4  1  0  0  0  0
  9  7  1  0  0  0  0
 10  3  2  0  0  0  0
 11 10  1  0  0  0  0
 12 15  1  0  0  0  0
 13 12  1  0  0  0  0
 14 16  1  0  0  0  0
 15 17  2  0  0  0  0
 16 11  2  0  0  0  0
 17 11  1  0  0  0  0
  9  8  2  0  0  0  0
 12 14  2  0  0  0  0
M  END
> <#>
573

> <PLATE>
LAT008

> <ROW>
E

> <COL>
3

> <COORD>
E03

> <LATID>
LAT008E03

> <Supplier>
Chembridge

> <Suplier_CAT#>
5477215

> <Name>
Novel

> <Sec_Name>
139_F10

> <Concentration_(mM)>
2.5

> <IC50_(µM)>
80

> <Yeast_Active?>
-

> <Pubchem_CID>
760168

$$$$
