
  -ISIS-  08130814242D

 26 29  0  0  0  0  0  0  0  0999 V2000
    0.8792   -1.7125    0.0000 C   0  0  0  0  0  0  0  0  0  0  0  0
    2.1125   -0.9917    0.0000 C   0  0  3  0  0  0  0  0  0  0  0  0
    1.7042   -1.7125    0.0000 C   0  0  0  0  0  0  0  0  0  0  0  0
    2.9375   -0.9875    0.0000 C   0  0  0  0  0  0  0  0  0  0  0  0
    0.4667   -1.0000    0.0000 N   0  0  0  0  0  0  0  0  0  0  0  0
    0.8792   -0.2792    0.0000 C   0  0  0  0  0  0  0  0  0  0  0  0
    3.3500   -0.2667    0.0000 C   0  0  0  0  0  0  0  0  0  0  0  0
    3.3542   -1.7000    0.0000 C   0  0  0  0  0  0  0  0  0  0  0  0
    4.1667   -0.2667    0.0000 C   0  0  0  0  0  0  0  0  0  0  0  0
    0.4750   -2.4250    0.0000 C   0  0  0  0  0  0  0  0  0  0  0  0
    4.1792   -1.6917    0.0000 C   0  0  0  0  0  0  0  0  0  0  0  0
    4.5917   -0.9750    0.0000 C   0  0  0  0  0  0  0  0  0  0  0  0
    1.7000   -0.2792    0.0000 C   0  0  0  0  0  0  0  0  0  0  0  0
    2.1167   -2.4250    0.0000 C   0  0  0  0  0  0  0  0  0  0  0  0
    0.4667    0.4333    0.0000 O   0  0  0  0  0  0  0  0  0  0  0  0
    0.8792   -3.1417    0.0000 C   0  0  0  0  0  0  0  0  0  0  0  0
    1.7042   -3.1375    0.0000 C   0  0  0  0  0  0  0  0  0  0  0  0
    2.9292    0.4458    0.0000 Br  0  0  0  0  0  0  0  0  0  0  0  0
    4.6000   -2.4042    0.0000 O   0  0  0  0  0  0  0  0  0  0  0  0
    5.4167   -0.9667    0.0000 O   0  0  0  0  0  0  0  0  0  0  0  0
   -0.3500   -2.4167    0.0000 C   0  0  0  0  0  0  0  0  0  0  0  0
    0.4667   -3.8500    0.0000 C   0  0  0  0  0  0  0  0  0  0  0  0
    4.1917   -3.1250    0.0000 C   0  0  0  0  0  0  0  0  0  0  0  0
    5.8375   -1.6792    0.0000 C   0  0  0  0  0  0  0  0  0  0  0  0
   -0.7625   -3.1292    0.0000 C   0  0  0  0  0  0  0  0  0  0  0  0
   -0.3500   -3.8500    0.0000 C   0  0  0  0  0  0  0  0  0  0  0  0
  2  3  1  0  0  0  0
  3  1  2  0  0  0  0
  4  2  1  0  0  0  0
  5  1  1  0  0  0  0
  6  5  1  0  0  0  0
  7  4  2  0  0  0  0
  8  4  1  0  0  0  0
  9  7  1  0  0  0  0
 10  1  1  0  0  0  0
 11  8  2  0  0  0  0
 12 11  1  0  0  0  0
 13  6  1  0  0  0  0
 14  3  1  0  0  0  0
 15  6  2  0  0  0  0
 16 10  1  0  0  0  0
 17 16  1  0  0  0  0
 18  7  1  0  0  0  0
 19 11  1  0  0  0  0
 20 12  1  0  0  0  0
 21 10  2  0  0  0  0
 22 16  2  0  0  0  0
 23 19  1  0  0  0  0
 24 20  1  0  0  0  0
 25 21  1  0  0  0  0
 26 25  2  0  0  0  0
 14 17  2  0  0  0  0
 13  2  1  0  0  0  0
 22 26  1  0  0  0  0
  9 12  2  0  0  0  0
M  END
> <#>
1861

> <PLATE>
LAT024

> <ROW>
E

> <COL>
4

> <COORD>
E04

> <LATID>
LAT024E04

> <Supplier>
Chembridge

> <Suplier_CAT#>
5771210

> <Name>
Quinoxyphen

> <Sec_Name>
243_E09

> <Concentration_(mM)>
2.5

> <IC50_(µM)>
0.25

> <Yeast_Active?>
-

> <Pubchem_CID>
1037064

> <Comment>
SS16; CBI-2

$$$$
