
  -ISIS-  08130814242D

 34 37  0  0  0  0  0  0  0  0999 V2000
    3.1417   -0.5792    0.0000 N   0  0  3  0  0  0  0  0  0  0  0  0
    2.4167   -0.1875    0.0000 C   0  0  0  0  0  0  0  0  0  0  0  0
    9.6417   -4.2125    0.0000 C   0  0  0  0  0  0  0  0  0  0  0  0
    4.5875   -1.3750    0.0000 N   0  0  3  0  0  0  0  0  0  0  0  0
    8.9292   -3.8000    0.0000 C   0  0  0  0  0  0  0  0  0  0  0  0
   10.3542   -3.8000    0.0000 C   0  0  0  0  0  0  0  0  0  0  0  0
    3.8417   -0.1542    0.0000 C   0  0  0  0  0  0  0  0  0  0  0  0
    3.1625   -1.4125    0.0000 C   0  0  0  0  0  0  0  0  0  0  0  0
    9.6417   -5.0375    0.0000 O   0  0  0  0  0  0  0  0  0  0  0  0
    2.4000    0.6375    0.0000 C   0  0  0  0  0  0  0  0  0  0  0  0
    1.7167   -0.6167    0.0000 C   0  0  0  0  0  0  0  0  0  0  0  0
    5.3167   -1.7667    0.0000 C   0  0  0  0  0  0  0  0  0  0  0  0
   11.0750   -4.2125    0.0000 C   0  0  0  0  0  0  0  0  0  0  0  0
   10.3542   -2.9792    0.0000 C   0  0  0  0  0  0  0  0  0  0  0  0
    8.9292   -2.9792    0.0000 C   0  0  0  0  0  0  0  0  0  0  0  0
    8.2167   -4.2125    0.0000 C   0  0  0  0  0  0  0  0  0  0  0  0
    4.5667   -0.5417    0.0000 C   0  0  0  0  0  0  0  0  0  0  0  0
    3.8917   -1.8125    0.0000 C   0  0  0  0  0  0  0  0  0  0  0  0
    6.7792   -2.5667    0.0000 O   0  0  0  0  0  0  0  0  0  0  0  0
    6.0250   -1.3292    0.0000 C   0  0  3  0  0  0  0  0  0  0  0  0
    7.5125   -2.9792    0.0000 C   0  0  0  0  0  0  0  0  0  0  0  0
   11.7875   -2.9750    0.0000 C   0  0  0  0  0  0  0  0  0  0  0  0
    6.7542   -1.7250    0.0000 C   0  0  0  0  0  0  0  0  0  0  0  0
    8.2167   -2.5667    0.0000 C   0  0  0  0  0  0  0  0  0  0  0  0
    7.5125   -3.8000    0.0000 C   0  0  0  0  0  0  0  0  0  0  0  0
   11.0667   -2.5625    0.0000 C   0  0  0  0  0  0  0  0  0  0  0  0
   11.7875   -3.8042    0.0000 C   0  0  0  0  0  0  0  0  0  0  0  0
   12.5042   -2.5625    0.0000 Cl  0  0  0  0  0  0  0  0  0  0  0  0
    6.0000   -0.5042    0.0000 O   0  0  0  0  0  0  0  0  0  0  0  0
    0.9667    0.6083    0.0000 C   0  0  0  0  0  0  0  0  0  0  0  0
    0.9917   -0.2167    0.0000 C   0  0  0  0  0  0  0  0  0  0  0  0
    1.6750    1.0333    0.0000 C   0  0  0  0  0  0  0  0  0  0  0  0
    1.7417   -1.4417    0.0000 C   0  0  0  0  0  0  0  0  0  0  0  0
    3.1042    1.0708    0.0000 C   0  0  0  0  0  0  0  0  0  0  0  0
  2  1  1  0  0  0  0
  3  5  1  0  0  0  0
  4 18  1  0  0  0  0
  5 16  2  0  0  0  0
  6  3  1  0  0  0  0
  7  1  1  0  0  0  0
  8  1  1  0  0  0  0
  9  3  2  0  0  0  0
 10  2  2  0  0  0  0
 11  2  1  0  0  0  0
 12  4  1  0  0  0  0
 13  6  2  0  0  0  0
 14  6  1  0  0  0  0
 15 24  2  0  0  0  0
 16 25  1  0  0  0  0
 17  7  1  0  0  0  0
 18  8  1  0  0  0  0
 19 23  1  0  0  0  0
 20 12  1  0  0  0  0
 21 19  1  0  0  0  0
 22 26  1  0  0  0  0
 23 20  1  0  0  0  0
 24 21  1  0  0  0  0
 25 21  2  0  0  0  0
 26 14  2  0  0  0  0
 27 13  1  0  0  0  0
 28 22  1  0  0  0  0
 29 20  1  0  0  0  0
 30 31  1  0  0  0  0
 31 11  2  0  0  0  0
 32 10  1  0  0  0  0
 33 11  1  0  0  0  0
 34 10  1  0  0  0  0
 17  4  1  0  0  0  0
 32 30  2  0  0  0  0
  5 15  1  0  0  0  0
 27 22  2  0  0  0  0
M  END
> <#>
1044

> <PLATE>
LAT014

> <ROW>
D

> <COL>
2

> <COORD>
D02

> <LATID>
LAT014D02

> <Supplier>
Chembridge

> <Suplier_CAT#>
7659043

> <Name>
Novel

> <Concentration_(mM)>
2.5

> <IC50_(µM)>
>100

> <Yeast_Active?>
+

> <Pubchem_CID>
2946074

$$$$
