
  -ISIS-  08130814242D

 21 24  0  0  0  0  0  0  0  0999 V2000
   -3.0000    1.9583    0.0000 C   0  0  0  0  0  0  0  0  0  0  0  0
   -3.0000    1.1208    0.0000 C   0  0  0  0  0  0  0  0  0  0  0  0
   -2.2958    0.7000    0.0000 N   0  0  0  0  0  0  0  0  0  0  0  0
   -2.2833    2.3625    0.0000 C   0  0  0  0  0  0  0  0  0  0  0  0
   -3.7208    0.7125    0.0000 S   0  0  0  0  0  0  0  0  0  0  0  0
   -4.4208    1.9583    0.0000 C   0  0  0  0  0  0  0  0  0  0  0  0
   -1.5708    1.9458    0.0000 C   0  0  0  0  0  0  0  0  0  0  0  0
   -1.5708    1.1125    0.0000 C   0  0  0  0  0  0  0  0  0  0  0  0
   -4.4333    1.1333    0.0000 C   0  0  0  0  0  0  0  0  0  0  0  0
   -0.8625    0.7000    0.0000 C   0  0  0  0  0  0  0  0  0  0  0  0
   -2.2833    3.1833    0.0000 N   0  0  0  0  0  0  0  0  0  0  0  0
   -0.8500    2.3500    0.0000 C   0  0  0  0  0  0  0  0  0  0  0  0
   -5.1333    2.3708    0.0000 C   0  0  0  0  0  0  0  0  0  0  0  0
   -5.1458    0.7208    0.0000 C   0  0  0  0  0  0  0  0  0  0  0  0
   -0.1500    1.1125    0.0000 C   0  0  0  0  0  0  0  0  0  0  0  0
   -0.8708   -0.1042    0.0000 C   0  0  0  0  0  0  0  0  0  0  0  0
   -5.8500    1.9625    0.0000 C   0  0  0  0  0  0  0  0  0  0  0  0
   -5.8500    1.1333    0.0000 C   0  0  0  0  0  0  0  0  0  0  0  0
    0.5542    0.7000    0.0000 C   0  0  0  0  0  0  0  0  0  0  0  0
   -0.1500   -0.5292    0.0000 C   0  0  0  0  0  0  0  0  0  0  0  0
    0.5500   -0.1167    0.0000 C   0  0  0  0  0  0  0  0  0  0  0  0
  2  1  2  0  0  0  0
  3  2  1  0  0  0  0
  4  1  1  0  0  0  0
  5  2  1  0  0  0  0
  6  1  1  0  0  0  0
  7  4  2  0  0  0  0
  8  7  1  0  0  0  0
  9  6  2  0  0  0  0
 10  8  1  0  0  0  0
 11  4  1  0  0  0  0
 12  7  1  0  0  0  0
 13  6  1  0  0  0  0
 14  9  1  0  0  0  0
 15 10  1  0  0  0  0
 16 10  2  0  0  0  0
 17 13  1  0  0  0  0
 18 17  1  0  0  0  0
 19 15  2  0  0  0  0
 20 16  1  0  0  0  0
 21 20  2  0  0  0  0
  5  9  1  0  0  0  0
  8  3  2  0  0  0  0
 18 14  1  0  0  0  0
 21 19  1  0  0  0  0
M  END
> <#>
1849

> <PLATE>
LAT024

> <ROW>
A

> <COL>
3

> <COORD>
A03

> <LATID>
LAT024A03

> <Supplier>
Chembridge

> <Suplier_CAT#>
5720858

> <Name>
Novel

> <Sec_Name>
229_E07

> <Concentration_(mM)>
2.5

> <IC50_(µM)>
3

> <Yeast_Active?>
-

> <Pubchem_CID>
744146

> <Comment>
SS15

$$$$
