
  -ISIS-  08130814242D

 21 22  0  0  0  0  0  0  0  0999 V2000
   -2.0125    1.5208    0.0000 C   0  0  0  0  0  0  0  0  0  0  0  0
   -2.7708    1.9625    0.0000 C   0  0  0  0  0  0  0  0  0  0  0  0
   -1.2500    1.9833    0.0000 C   0  0  0  0  0  0  0  0  0  0  0  0
   -3.5333    1.5208    0.0000 C   0  0  0  0  0  0  0  0  0  0  0  0
   -2.0125    0.6458    0.0000 C   0  0  0  0  0  0  0  0  0  0  0  0
   -0.4958    1.5458    0.0000 C   0  0  0  0  0  0  0  0  0  0  0  0
   -1.2500    2.8625    0.0000 O   0  0  0  0  0  0  0  0  0  0  0  0
    0.2542    1.9833    0.0000 O   0  0  0  0  0  0  0  0  0  0  0  0
   -3.5333    0.6458    0.0000 C   0  0  0  0  0  0  0  0  0  0  0  0
   -2.7708    2.8458    0.0000 O   0  0  0  0  0  0  0  0  0  0  0  0
   -2.7708    0.2000    0.0000 C   0  0  0  0  0  0  0  0  0  0  0  0
    1.0500    1.5458    0.0000 C   0  0  0  0  0  0  0  0  0  0  0  0
    2.5500    0.6625    0.0000 C   0  0  0  0  0  0  0  0  0  0  0  0
    1.0500    0.6625    0.0000 C   0  0  0  0  0  0  0  0  0  0  0  0
    1.8000    1.9833    0.0000 C   0  0  0  0  0  0  0  0  0  0  0  0
    2.5500    1.5458    0.0000 C   0  0  0  0  0  0  0  0  0  0  0  0
    1.8000    0.2208    0.0000 C   0  0  0  0  0  0  0  0  0  0  0  0
   -4.3125    0.2000    0.0000 O   0  0  0  0  0  0  0  0  0  0  0  0
    3.3000    0.2000    0.0000 C   0  0  0  0  0  0  0  0  0  0  0  0
    4.0542    0.6458    0.0000 C   0  0  0  0  0  0  0  0  0  0  0  0
    4.8500    0.2000    0.0000 C   0  0  0  0  0  0  0  0  0  0  0  0
  2  1  1  0  0  0  0
  3  1  1  0  0  0  0
  4  2  2  0  0  0  0
  5  1  2  0  0  0  0
  6  3  1  0  0  0  0
  7  3  2  0  0  0  0
  8  6  1  0  0  0  0
  9 11  2  0  0  0  0
 10  2  1  0  0  0  0
 11  5  1  0  0  0  0
 12  8  1  0  0  0  0
 13 16  2  0  0  0  0
 14 12  1  0  0  0  0
 15 12  2  0  0  0  0
 16 15  1  0  0  0  0
 17 14  2  0  0  0  0
 18  9  1  0  0  0  0
 19 13  1  0  0  0  0
 20 19  1  0  0  0  0
 21 20  1  0  0  0  0
  9  4  1  0  0  0  0
 17 13  1  0  0  0  0
M  END
> <#>
1274

> <PLATE>
LAT016

> <ROW>
B

> <COL>
11

> <COORD>
B11

> <LATID>
LAT016B11

> <Supplier>
Chembridge

> <Suplier_CAT#>
6644975

> <Name>
Novel

> <Concentration_(mM)>
2.5

> <IC50_(µM)>
>100

> <Yeast_Active?>
-

> <Pubchem_CID>
679581

$$$$
