
  -ISIS-  08130814242D

 22 23  0  0  0  0  0  0  0  0999 V2000
    2.5917   -1.0250    0.0000 C   0  0  0  0  0  0  0  0  0  0  0  0
    1.8750   -0.6125    0.0000 C   0  0  0  0  0  0  0  0  0  0  0  0
    1.1625   -1.0292    0.0000 C   0  0  0  0  0  0  0  0  0  0  0  0
   -1.6958    0.6208    0.0000 C   0  0  3  0  0  0  0  0  0  0  0  0
   -0.9833    0.2083    0.0000 C   0  0  0  0  0  0  0  0  0  0  0  0
    3.3042   -0.6125    0.0000 N   0  0  0  0  0  0  0  0  0  0  0  0
    5.4417   -1.0167    0.0000 N   0  0  0  0  0  0  0  0  0  0  0  0
    2.5917   -1.8500    0.0000 O   0  0  0  0  0  0  0  0  0  0  0  0
   -0.9750   -0.6250    0.0000 C   0  0  0  0  0  0  0  0  0  0  0  0
   -0.2708    0.6208    0.0000 C   0  0  0  0  0  0  0  0  0  0  0  0
    0.4417   -0.6167    0.0000 C   0  0  0  0  0  0  0  0  0  0  0  0
    4.7292   -0.6125    0.0000 C   0  0  0  0  0  0  0  0  0  0  0  0
    4.0167   -1.0250    0.0000 C   0  0  0  0  0  0  0  0  0  0  0  0
   -0.2625   -1.0292    0.0000 C   0  0  0  0  0  0  0  0  0  0  0  0
    0.4500    0.2083    0.0000 C   0  0  0  0  0  0  0  0  0  0  0  0
   -2.1125    1.3333    0.0000 C   0  0  0  0  0  0  0  0  0  0  0  0
   -1.2875    1.3333    0.0000 C   0  0  0  0  0  0  0  0  0  0  0  0
   -2.4125    0.2083    0.0000 C   0  0  0  0  0  0  0  0  0  0  0  0
    6.1625   -0.6125    0.0000 C   0  0  0  0  0  0  0  0  0  0  0  0
    4.7375    0.2125    0.0000 C   0  0  0  0  0  0  0  0  0  0  0  0
    6.1625    0.2125    0.0000 C   0  0  0  0  0  0  0  0  0  0  0  0
    5.4417    0.6333    0.0000 C   0  0  0  0  0  0  0  0  0  0  0  0
  2  1  1  0  0  0  0
  3  2  2  0  0  0  0
  4  5  1  0  0  0  0
  5 10  2  0  0  0  0
  6  1  1  0  0  0  0
  7 12  1  0  0  0  0
  8  1  2  0  0  0  0
  9 14  2  0  0  0  0
 10 15  1  0  0  0  0
 11  3  1  0  0  0  0
 12 13  1  0  0  0  0
 13  6  1  0  0  0  0
 14 11  1  0  0  0  0
 15 11  2  0  0  0  0
 16  4  1  0  0  0  0
 17  4  1  0  0  0  0
 18  4  1  0  0  0  0
 19  7  2  0  0  0  0
 20 12  2  0  0  0  0
 21 22  2  0  0  0  0
 22 20  1  0  0  0  0
  5  9  1  0  0  0  0
 21 19  1  0  0  0  0
M  END
> <#>
1507

> <PLATE>
LAT019

> <ROW>
C

> <COL>
10

> <COORD>
C10

> <LATID>
LAT019C10

> <Supplier>
Chembridge

> <Suplier_CAT#>
7180781

> <Name>
Novel

> <Concentration_(mM)>
2.5

> <IC50_(µM)>
74

> <Yeast_Active?>
-

> <Pubchem_CID>
892849

$$$$
