
  -ISIS-  08130814242D

 20 21  0  0  0  0  0  0  0  0999 V2000
    5.0750    1.0375    0.0000 C   0  0  0  0  0  0  0  0  0  0  0  0
    1.1792    2.5375    0.0000 C   0  0  0  0  0  0  0  0  0  0  0  0
    0.5292    2.9125    0.0000 C   0  0  0  0  0  0  0  0  0  0  0  0
    5.7250    1.4125    0.0000 N   0  0  0  0  0  0  0  0  0  0  0  0
    4.4250    1.4125    0.0000 C   0  0  0  0  0  0  0  0  0  0  0  0
    7.6750    1.0375    0.0000 N   0  0  0  0  0  0  0  0  0  0  0  0
    5.0750    0.2875    0.0000 O   0  0  0  0  0  0  0  0  0  0  0  0
    4.4250    2.1625    0.0000 C   0  0  0  0  0  0  0  0  0  0  0  0
    3.7750    1.0375    0.0000 C   0  0  0  0  0  0  0  0  0  0  0  0
    6.3750    1.0375    0.0000 C   0  0  0  0  0  0  0  0  0  0  0  0
    7.0250    1.4125    0.0000 C   0  0  0  0  0  0  0  0  0  0  0  0
    3.1250    2.1625    0.0000 C   0  0  0  0  0  0  0  0  0  0  0  0
    3.7750    2.5375    0.0000 C   0  0  0  0  0  0  0  0  0  0  0  0
    3.1250    1.4125    0.0000 C   0  0  0  0  0  0  0  0  0  0  0  0
    1.8292    2.1625    0.0000 C   0  0  0  0  0  0  0  0  0  0  0  0
    2.4750    2.5375    0.0000 O   0  0  0  0  0  0  0  0  0  0  0  0
    8.3167    1.4125    0.0000 C   0  0  0  0  0  0  0  0  0  0  0  0
    7.0250    2.1625    0.0000 C   0  0  0  0  0  0  0  0  0  0  0  0
    8.3167    2.1625    0.0000 C   0  0  0  0  0  0  0  0  0  0  0  0
    7.6750    2.5375    0.0000 C   0  0  0  0  0  0  0  0  0  0  0  0
  2 15  1  0  0  0  0
  3  2  3  0  0  0  0
  4  1  1  0  0  0  0
  5  1  1  0  0  0  0
  6 11  1  0  0  0  0
  7  1  2  0  0  0  0
  8  5  1  0  0  0  0
  9  5  2  0  0  0  0
 10  4  1  0  0  0  0
 11 10  1  0  0  0  0
 12 14  2  0  0  0  0
 13  8  2  0  0  0  0
 14  9  1  0  0  0  0
 15 16  1  0  0  0  0
 16 12  1  0  0  0  0
 17  6  2  0  0  0  0
 18 11  2  0  0  0  0
 19 20  2  0  0  0  0
 20 18  1  0  0  0  0
 13 12  1  0  0  0  0
 19 17  1  0  0  0  0
M  END
> <#>
1414

> <PLATE>
LAT018

> <ROW>
F

> <COL>
8

> <COORD>
F08

> <LATID>
LAT018F08

> <Supplier>
Chembridge

> <Suplier_CAT#>
9057231

> <Name>
Novel

> <Concentration_(mM)>
2.5

> <IC50_(µM)>
inactive

> <Yeast_Active?>
-

> <Pubchem_CID>
6471313

$$$$
