
  -ISIS-  08130814242D

 19 20  0  0  0  0  0  0  0  0999 V2000
   -0.7208    4.3792    0.0000 N   0  3  0  0  0  0  0  0  0  0  0  0
   -0.7208    3.6458    0.0000 C   0  0  0  0  0  0  0  0  0  0  0  0
   -0.0708    4.7542    0.0000 O   0  5  0  0  0  0  0  0  0  0  0  0
   -1.3708    4.7542    0.0000 O   0  0  0  0  0  0  0  0  0  0  0  0
    0.5875   -0.1167    0.0000 C   0  0  0  0  0  0  0  0  0  0  0  0
   -0.0708    0.2583    0.0000 C   0  0  0  0  0  0  0  0  0  0  0  0
   -0.0708    1.0083    0.0000 O   0  0  0  0  0  0  0  0  0  0  0  0
   -1.3708    3.2583    0.0000 C   0  0  0  0  0  0  0  0  0  0  0  0
   -0.0708    3.2708    0.0000 C   0  0  0  0  0  0  0  0  0  0  0  0
   -0.7208    1.3833    0.0000 C   0  0  0  0  0  0  0  0  0  0  0  0
   -0.7208    2.1333    0.0000 C   0  0  0  0  0  0  0  0  0  0  0  0
   -1.3708    2.5083    0.0000 C   0  0  0  0  0  0  0  0  0  0  0  0
   -0.0708    2.5083    0.0000 C   0  0  0  0  0  0  0  0  0  0  0  0
    1.2292    0.2583    0.0000 C   0  0  0  0  0  0  0  0  0  0  0  0
    1.8792   -0.1167    0.0000 O   0  0  0  0  0  0  0  0  0  0  0  0
    0.5875   -0.8667    0.0000 C   0  0  0  0  0  0  0  0  0  0  0  0
   -0.7208   -0.1167    0.0000 C   0  0  0  0  0  0  0  0  0  0  0  0
   -0.0625   -1.2417    0.0000 C   0  0  0  0  0  0  0  0  0  0  0  0
   -0.7208   -0.8667    0.0000 C   0  0  0  0  0  0  0  0  0  0  0  0
  2  1  1  0  0  0  0
  3  1  1  0  0  0  0
  4  1  2  0  0  0  0
  5  6  1  0  0  0  0
  6  7  1  0  0  0  0
  7 10  1  0  0  0  0
  8  2  2  0  0  0  0
  9  2  1  0  0  0  0
 10 11  1  0  0  0  0
 11 13  1  0  0  0  0
 12  8  1  0  0  0  0
 13  9  2  0  0  0  0
 14  5  1  0  0  0  0
 15 14  1  0  0  0  0
 16  5  2  0  0  0  0
 17  6  2  0  0  0  0
 18 19  2  0  0  0  0
 19 17  1  0  0  0  0
 12 11  2  0  0  0  0
 18 16  1  0  0  0  0
M  CHG  2   1   1   3  -1
M  END
> <#>
1904

> <PLATE>
LAT024

> <ROW>
H

> <COL>
9

> <COORD>
H09

> <LATID>
LAT024H09

> <Supplier>
Chembridge

> <Suplier_CAT#>
7284520

> <Name>
S001 D11

> <Concentration_(mM)>
2.5

> <IC50_(µM)>
75

> <Yeast_Active?>
-

> <Pubchem_CID>
898689

$$$$
