
  -ISIS-  08130814242D

 26 28  0  0  0  0  0  0  0  0999 V2000
    3.7667   -3.3292    0.0000 N   0  0  3  0  0  0  0  0  0  0  0  0
    4.2542   -4.0000    0.0000 C   0  0  0  0  0  0  0  0  0  0  0  0
    5.0375   -3.7417    0.0000 N   0  0  0  0  0  0  0  0  0  0  0  0
    5.0375   -2.9167    0.0000 N   0  0  0  0  0  0  0  0  0  0  0  0
    4.2542   -2.6625    0.0000 N   0  0  0  0  0  0  0  0  0  0  0  0
    4.0000   -4.7792    0.0000 S   0  0  0  0  0  0  0  0  0  0  0  0
    2.9417   -3.3292    0.0000 C   0  0  0  0  0  0  0  0  0  0  0  0
    0.4750   -3.3292    0.0000 C   0  0  0  0  0  0  0  0  0  0  0  0
    5.9625   -5.7292    0.0000 C   0  0  0  0  0  0  0  0  0  0  0  0
    5.7417   -6.5292    0.0000 C   0  0  0  0  0  0  0  0  0  0  0  0
    6.3292   -7.1125    0.0000 C   0  0  0  0  0  0  0  0  0  0  0  0
    5.3792   -5.1500    0.0000 C   0  0  0  0  0  0  0  0  0  0  0  0
    1.3000   -3.3292    0.0000 C   0  0  0  0  0  0  0  0  0  0  0  0
    7.1250   -6.8917    0.0000 C   0  0  0  0  0  0  0  0  0  0  0  0
    4.5792   -5.3667    0.0000 C   0  0  0  0  0  0  0  0  0  0  0  0
    0.0542   -2.6167    0.0000 O   0  0  0  0  0  0  0  0  0  0  0  0
    6.7542   -5.5167    0.0000 C   0  0  0  0  0  0  0  0  0  0  0  0
    2.5292   -4.0417    0.0000 C   0  0  0  0  0  0  0  0  0  0  0  0
    2.5292   -2.6167    0.0000 C   0  0  0  0  0  0  0  0  0  0  0  0
    5.5917   -4.3542    0.0000 O   0  0  0  0  0  0  0  0  0  0  0  0
    1.7042   -2.6167    0.0000 C   0  0  0  0  0  0  0  0  0  0  0  0
    1.7042   -4.0417    0.0000 C   0  0  0  0  0  0  0  0  0  0  0  0
    7.3375   -6.0917    0.0000 C   0  0  0  0  0  0  0  0  0  0  0  0
    0.0625   -4.0500    0.0000 N   0  0  0  0  0  0  0  0  0  0  0  0
    6.1167   -7.9042    0.0000 O   0  0  0  0  0  0  0  0  0  0  0  0
    7.7125   -7.4792    0.0000 O   0  0  0  0  0  0  0  0  0  0  0  0
  2  1  1  0  0  0  0
  3  2  2  0  0  0  0
  4  5  2  0  0  0  0
  5  1  1  0  0  0  0
  6  2  1  0  0  0  0
  7  1  1  0  0  0  0
  8 13  1  0  0  0  0
  9 12  1  0  0  0  0
 10  9  2  0  0  0  0
 11 10  1  0  0  0  0
 12 15  1  0  0  0  0
 13 21  2  0  0  0  0
 14 23  1  0  0  0  0
 15  6  1  0  0  0  0
 16  8  2  0  0  0  0
 17  9  1  0  0  0  0
 18  7  1  0  0  0  0
 19  7  2  0  0  0  0
 20 12  2  0  0  0  0
 21 19  1  0  0  0  0
 22 18  2  0  0  0  0
 23 17  2  0  0  0  0
 24  8  1  0  0  0  0
 25 11  1  0  0  0  0
 26 14  1  0  0  0  0
  4  3  1  0  0  0  0
 13 22  1  0  0  0  0
 14 11  2  0  0  0  0
M  END
> <#>
1363

> <PLATE>
LAT018

> <ROW>
C

> <COL>
2

> <COORD>
C02

> <LATID>
LAT018C02

> <Supplier>
Chembridge

> <Suplier_CAT#>
7775407

> <Name>
Novel

> <Concentration_(mM)>
2.5

> <IC50_(µM)>
>100

> <Yeast_Active?>
-

> <Pubchem_CID>
2010274

$$$$
