
  -ISIS-  08130814242D

 20 21  0  0  0  0  0  0  0  0999 V2000
   -0.5708    0.2625    0.0000 C   0  0  0  0  0  0  0  0  0  0  0  0
   -1.0500    0.9208    0.0000 N   0  0  0  0  0  0  0  0  0  0  0  0
   -1.0500   -0.4000    0.0000 N   0  0  3  0  0  0  0  0  0  0  0  0
   -1.8125    0.6833    0.0000 C   0  0  0  0  0  0  0  0  0  0  0  0
   -1.8125   -0.1542    0.0000 C   0  0  0  0  0  0  0  0  0  0  0  0
    0.2500    0.2458    0.0000 S   0  0  0  0  0  0  0  0  0  0  0  0
   -2.5333    1.0833    0.0000 C   0  0  0  0  0  0  0  0  0  0  0  0
   -2.5333   -0.5542    0.0000 C   0  0  0  0  0  0  0  0  0  0  0  0
    1.4667   -0.4792    0.0000 C   0  0  0  0  0  0  0  0  0  0  0  0
    1.8875    0.2458    0.0000 C   0  0  3  0  0  0  0  0  0  0  0  0
    0.6667   -0.4792    0.0000 C   0  0  0  0  0  0  0  0  0  0  0  0
    1.8875   -1.1792    0.0000 O   0  0  0  0  0  0  0  0  0  0  0  0
   -3.2333    0.6833    0.0000 C   0  0  0  0  0  0  0  0  0  0  0  0
   -3.2333   -0.1542    0.0000 C   0  0  0  0  0  0  0  0  0  0  0  0
   -0.7958   -1.1792    0.0000 C   0  0  0  0  0  0  0  0  0  0  0  0
   -3.9583    1.1000    0.0000 O   0  0  0  0  0  0  0  0  0  0  0  0
    1.1667    0.6625    0.0000 C   0  0  0  0  0  0  0  0  0  0  0  0
    2.2875    0.9625    0.0000 C   0  0  0  0  0  0  0  0  0  0  0  0
    2.5875   -0.1792    0.0000 C   0  0  0  0  0  0  0  0  0  0  0  0
   -3.9708    1.9208    0.0000 C   0  0  0  0  0  0  0  0  0  0  0  0
  2  1  2  0  0  0  0
  3  1  1  0  0  0  0
  4  2  1  0  0  0  0
  5  3  1  0  0  0  0
  6  1  1  0  0  0  0
  7  4  1  0  0  0  0
  8  5  1  0  0  0  0
  9 11  1  0  0  0  0
 10  9  1  0  0  0  0
 11  6  1  0  0  0  0
 12  9  2  0  0  0  0
 13  7  2  0  0  0  0
 14  8  2  0  0  0  0
 15  3  1  0  0  0  0
 16 13  1  0  0  0  0
 17 10  1  0  0  0  0
 18 10  1  0  0  0  0
 19 10  1  0  0  0  0
 20 16  1  0  0  0  0
  4  5  2  0  0  0  0
 13 14  1  0  0  0  0
M  END
> <#>
811

> <PLATE>
LAT011

> <ROW>
C

> <COL>
3

> <COORD>
C03

> <LATID>
LAT011C03

> <Supplier>
Chembridge

> <Suplier_CAT#>
5659877

> <Name>
Novel

> <Sec_Name>
205_C05

> <Concentration_(mM)>
2.5

> <IC50_(µM)>
39

> <Yeast_Active?>
-

> <Pubchem_CID>
867593

$$$$
