
  -ISIS-  08130814242D

 26 28  0  0  0  0  0  0  0  0999 V2000
    4.2542   -1.3000    0.0000 C   0  0  0  0  0  0  0  0  0  0  0  0
    3.6042   -0.9167    0.0000 C   0  0  0  0  0  0  0  0  0  0  0  0
   -0.9333   -3.5542    0.0000 N   0  3  0  0  0  0  0  0  0  0  0  0
    2.9542   -1.3000    0.0000 N   0  0  3  0  0  0  0  0  0  0  0  0
    4.9042   -0.9167    0.0000 C   0  0  0  0  0  0  0  0  0  0  0  0
    4.2542   -2.0500    0.0000 C   0  0  0  0  0  0  0  0  0  0  0  0
    1.6542   -2.0500    0.0000 N   0  0  3  0  0  0  0  0  0  0  0  0
    5.5542   -1.3042    0.0000 C   0  0  0  0  0  0  0  0  0  0  0  0
    4.9042   -2.4167    0.0000 C   0  0  0  0  0  0  0  0  0  0  0  0
    5.5542   -2.0542    0.0000 C   0  0  0  0  0  0  0  0  0  0  0  0
   -0.2833   -3.1792    0.0000 C   0  0  0  0  0  0  0  0  0  0  0  0
   -1.5833   -3.1792    0.0000 O   0  5  0  0  0  0  0  0  0  0  0  0
    1.0042   -2.4167    0.0000 C   0  0  0  0  0  0  0  0  0  0  0  0
   -0.9333   -4.3042    0.0000 O   0  0  0  0  0  0  0  0  0  0  0  0
    3.6042   -0.1667    0.0000 O   0  0  0  0  0  0  0  0  0  0  0  0
    2.9542   -2.0500    0.0000 C   0  0  0  0  0  0  0  0  0  0  0  0
    2.3042   -0.9167    0.0000 C   0  0  0  0  0  0  0  0  0  0  0  0
    2.3042   -2.4167    0.0000 C   0  0  0  0  0  0  0  0  0  0  0  0
    1.6542   -1.3000    0.0000 C   0  0  0  0  0  0  0  0  0  0  0  0
   -0.2833   -2.4167    0.0000 C   0  0  0  0  0  0  0  0  0  0  0  0
    0.3500   -3.5542    0.0000 C   0  0  0  0  0  0  0  0  0  0  0  0
    0.3500   -2.0500    0.0000 C   0  0  0  0  0  0  0  0  0  0  0  0
    1.0042   -3.1792    0.0000 C   0  0  0  0  0  0  0  0  0  0  0  0
    4.9042   -0.1667    0.0000 Cl  0  0  0  0  0  0  0  0  0  0  0  0
    4.9000   -3.1667    0.0000 F   0  0  0  0  0  0  0  0  0  0  0  0
    6.2000   -2.4292    0.0000 F   0  0  0  0  0  0  0  0  0  0  0  0
  2  1  1  0  0  0  0
  3 11  1  0  0  0  0
  4  2  1  0  0  0  0
  5  1  2  0  0  0  0
  6  1  1  0  0  0  0
  7 19  1  0  0  0  0
  8  5  1  0  0  0  0
  9  6  2  0  0  0  0
 10  9  1  0  0  0  0
 11 21  2  0  0  0  0
 12  3  1  0  0  0  0
 13  7  1  0  0  0  0
 14  3  2  0  0  0  0
 15  2  2  0  0  0  0
 16  4  1  0  0  0  0
 17  4  1  0  0  0  0
 18 16  1  0  0  0  0
 19 17  1  0  0  0  0
 20 22  2  0  0  0  0
 21 23  1  0  0  0  0
 22 13  1  0  0  0  0
 23 13  2  0  0  0  0
 24  5  1  0  0  0  0
 25  9  1  0  0  0  0
 26 10  1  0  0  0  0
 10  8  2  0  0  0  0
  7 18  1  0  0  0  0
 20 11  1  0  0  0  0
M  CHG  2   3   1  12  -1
M  END
> <#>
897

> <PLATE>
LAT012

> <ROW>
A

> <COL>
4

> <COORD>
A04

> <LATID>
LAT012A04

> <Supplier>
Chembridge

> <Suplier_CAT#>
5674407

> <Name>
Novel

> <Sec_Name>
212_F09

> <Concentration_(mM)>
2.5

> <IC50_(µM)>
24

> <Yeast_Active?>
-

> <Pubchem_CID>
NULL

$$$$
