
  -ISIS-  08130814242D

 22 24  0  0  0  0  0  0  0  0999 V2000
    5.4500    1.9333    0.0000 N   0  0  0  0  0  0  0  0  0  0  0  0
    4.7375    1.7000    0.0000 C   0  0  0  0  0  0  0  0  0  0  0  0
    5.8917    1.3250    0.0000 C   0  0  0  0  0  0  0  0  0  0  0  0
    5.4500    0.7208    0.0000 N   0  0  0  0  0  0  0  0  0  0  0  0
    4.7375    0.9500    0.0000 O   0  0  0  0  0  0  0  0  0  0  0  0
    4.1292    2.1458    0.0000 C   0  0  0  0  0  0  0  0  0  0  0  0
    3.4417    1.8375    0.0000 N   0  0  0  0  0  0  0  0  0  0  0  0
    6.6417    1.3250    0.0000 C   0  0  0  0  0  0  0  0  0  0  0  0
    1.5417    2.4125    0.0000 N   0  0  0  0  0  0  0  0  0  0  0  0
    4.2042    2.8958    0.0000 O   0  0  0  0  0  0  0  0  0  0  0  0
    7.0167    0.6750    0.0000 C   0  0  0  0  0  0  0  0  0  0  0  0
    7.0167    1.9750    0.0000 C   0  0  0  0  0  0  0  0  0  0  0  0
    2.8375    2.2833    0.0000 C   0  0  0  0  0  0  0  0  0  0  0  0
    2.1542    1.9750    0.0000 C   0  0  0  0  0  0  0  0  0  0  0  0
    8.1417    1.3250    0.0000 C   0  0  0  0  0  0  0  0  0  0  0  0
    7.7667    1.9750    0.0000 C   0  0  0  0  0  0  0  0  0  0  0  0
    7.7667    0.6750    0.0000 C   0  0  0  0  0  0  0  0  0  0  0  0
    8.8917    1.3250    0.0000 F   0  0  0  0  0  0  0  0  0  0  0  0
    0.8625    2.1083    0.0000 C   0  0  0  0  0  0  0  0  0  0  0  0
    2.0667    1.2250    0.0000 C   0  0  0  0  0  0  0  0  0  0  0  0
    0.7792    1.3625    0.0000 C   0  0  0  0  0  0  0  0  0  0  0  0
    1.3875    0.9208    0.0000 C   0  0  0  0  0  0  0  0  0  0  0  0
  2  1  2  0  0  0  0
  3  1  1  0  0  0  0
  4  3  2  0  0  0  0
  5  2  1  0  0  0  0
  6  2  1  0  0  0  0
  7  6  1  0  0  0  0
  8  3  1  0  0  0  0
  9 14  1  0  0  0  0
 10  6  2  0  0  0  0
 11  8  2  0  0  0  0
 12  8  1  0  0  0  0
 13  7  1  0  0  0  0
 14 13  1  0  0  0  0
 15 16  1  0  0  0  0
 16 12  2  0  0  0  0
 17 11  1  0  0  0  0
 18 15  1  0  0  0  0
 19  9  2  0  0  0  0
 20 14  2  0  0  0  0
 21 22  2  0  0  0  0
 22 20  1  0  0  0  0
  5  4  1  0  0  0  0
 15 17  2  0  0  0  0
 21 19  1  0  0  0  0
M  END
> <#>
1477

> <PLATE>
LAT019

> <ROW>
E

> <COL>
6

> <COORD>
E06

> <LATID>
LAT019E06

> <Supplier>
Chembridge

> <Suplier_CAT#>
9065614

> <Name>
Novel

> <Concentration_(mM)>
2.5

> <IC50_(µM)>
32

> <Yeast_Active?>
-

> <Pubchem_CID>
6472764

$$$$
