
  -ISIS-  08130814242D

  9  9  0  0  0  0  0  0  0  0999 V2000
    7.9798   -4.7385    0.0000 C   0  0  0  0  0  0  0  0  0  0  0  0
    6.7298   -4.7385    0.0000 C   0  0  0  0  0  0  0  0  0  0  0  0
    6.1048   -5.8211    0.0000 C   0  0  0  0  0  0  0  0  0  0  0  0
    4.8548   -5.8211    0.0000 C   0  0  0  0  0  0  0  0  0  0  0  0
    4.2298   -4.7385    0.0000 C   0  0  0  0  0  0  0  0  0  0  0  0
    4.8548   -3.6560    0.0000 C   0  0  0  0  0  0  0  0  0  0  0  0
    6.1048   -3.6560    0.0000 C   0  0  0  0  0  0  0  0  0  0  0  0
    8.6048   -3.6560    0.0000 O   0  0  0  0  0  0  0  0  0  0  0  0
    8.6048   -5.8211    0.0000 N   0  0  0  0  0  0  0  0  0  0  0  0
  1  2  1  0  0  0  0
  2  3  1  0  0  0  0
  3  4  2  0  0  0  0
  4  5  1  0  0  0  0
  5  6  2  0  0  0  0
  6  7  1  0  0  0  0
  2  7  2  0  0  0  0
  1  8  2  0  0  0  0
  1  9  1  0  0  0  0
M  END
> <#>
297

> <PLATE>
LAT004

> <ROW>
A

> <COL>
9

> <COORD>
A09

> <LATID>
LAT004A09

> <Supplier>
Sigma

> <Suplier_CAT#>
B-2009

> <Name>
Benzamide

> <Concentration_(mM)>
2.5

> <IC50_(µM)>
inactive

> <Yeast_Active?>
-

> <Pubchem_CID>
2331

$$$$
