
  -ISIS-  08130814242D

 17 18  0  0  0  0  0  0  0  0999 V2000
   -3.5125    0.8458    0.0000 C   0  0  0  0  0  0  0  0  0  0  0  0
   -2.7333    0.3833    0.0000 C   0  0  0  0  0  0  0  0  0  0  0  0
   -4.2958    0.4000    0.0000 O   0  0  0  0  0  0  0  0  0  0  0  0
   -3.5125    1.7625    0.0000 C   0  0  0  0  0  0  0  0  0  0  0  0
   -5.0708    0.8458    0.0000 C   0  0  0  0  0  0  0  0  0  0  0  0
   -5.0708    1.7625    0.0000 C   0  0  0  0  0  0  0  0  0  0  0  0
    1.2042    0.8000    0.0000 C   0  0  0  0  0  0  0  0  0  0  0  0
   -2.7333   -0.5292    0.0000 O   0  0  0  0  0  0  0  0  0  0  0  0
   -0.3625    0.8125    0.0000 N   0  0  0  0  0  0  0  0  0  0  0  0
    0.4167    0.3500    0.0000 C   0  0  0  0  0  0  0  0  0  0  0  0
   -1.9458    0.8333    0.0000 C   0  0  0  0  0  0  0  0  0  0  0  0
    2.0042    0.3500    0.0000 C   0  0  0  0  0  0  0  0  0  0  0  0
   -1.1625    0.3708    0.0000 C   0  0  0  0  0  0  0  0  0  0  0  0
    2.7875    0.8125    0.0000 Cl  0  0  0  0  0  0  0  0  0  0  0  0
    1.2042   -1.0375    0.0000 C   0  0  0  0  0  0  0  0  0  0  0  0
    0.4042   -0.5667    0.0000 C   0  0  0  0  0  0  0  0  0  0  0  0
    2.0042   -0.5667    0.0000 C   0  0  0  0  0  0  0  0  0  0  0  0
  2  1  1  0  0  0  0
  3  1  1  0  0  0  0
  4  1  2  0  0  0  0
  5  3  1  0  0  0  0
  6  4  1  0  0  0  0
  7 10  2  0  0  0  0
  8  2  2  0  0  0  0
  9 13  1  0  0  0  0
 10  9  1  0  0  0  0
 11  2  1  0  0  0  0
 12  7  1  0  0  0  0
 13 11  1  0  0  0  0
 14 12  1  0  0  0  0
 15 16  2  0  0  0  0
 16 10  1  0  0  0  0
 17 15  1  0  0  0  0
  6  5  2  0  0  0  0
 17 12  2  0  0  0  0
M  END
> <#>
859

> <PLATE>
LAT011

> <ROW>
C

> <COL>
9

> <COORD>
C09

> <LATID>
LAT011C09

> <Supplier>
Chembridge

> <Suplier_CAT#>
5651946

> <Name>
Novel

> <Sec_Name>
200_C02

> <Concentration_(mM)>
2.5

> <IC50_(µM)>
56

> <Yeast_Active?>
-

> <Pubchem_CID>
804612

$$$$
