
  -ISIS-  08130814242D

 17 18  0  0  0  0  0  0  0  0999 V2000
    4.6042   -2.3875    0.0000 N   0  0  3  0  0  0  0  0  0  0  0  0
    7.0750   -3.4667    0.0000 N   0  0  3  0  0  0  0  0  0  0  0  0
    7.0750   -4.2167    0.0000 C   0  0  0  0  0  0  0  0  0  0  0  0
    3.9542   -2.0125    0.0000 C   0  0  0  0  0  0  0  0  0  0  0  0
    5.5042   -3.5125    0.0000 Zn  0  0  0  0  0  0  0  0  0  0  0  0
    4.6042   -3.1375    0.0000 O   0  0  0  0  0  0  0  0  0  0  0  0
    6.4167   -3.0792    0.0000 O   0  0  0  0  0  0  0  0  0  0  0  0
    7.7167   -3.0917    0.0000 C   0  0  0  0  0  0  0  0  0  0  0  0
    6.4250   -4.5917    0.0000 S   0  0  0  0  0  0  0  0  0  0  0  0
    3.3042   -2.3875    0.0000 S   0  0  0  0  0  0  0  0  0  0  0  0
    5.2542   -2.0125    0.0000 C   0  0  0  0  0  0  0  0  0  0  0  0
    7.7167   -4.5917    0.0000 C   0  0  0  0  0  0  0  0  0  0  0  0
    8.3667   -3.4667    0.0000 C   0  0  0  0  0  0  0  0  0  0  0  0
    8.3667   -4.2167    0.0000 C   0  0  0  0  0  0  0  0  0  0  0  0
    5.2542   -1.2625    0.0000 C   0  0  0  0  0  0  0  0  0  0  0  0
    4.6042   -0.8875    0.0000 C   0  0  0  0  0  0  0  0  0  0  0  0
    3.9542   -1.2625    0.0000 C   0  0  0  0  0  0  0  0  0  0  0  0
  2  7  1  0  0  0  0
  3  2  1  0  0  0  0
  4  1  1  0  0  0  0
  5  6  1  0  0  0  0
  6  1  1  0  0  0  0
  7  5  1  0  0  0  0
  8  2  1  0  0  0  0
  9  3  2  0  0  0  0
 10  4  2  0  0  0  0
 11  1  2  0  0  0  0
 12  3  1  0  0  0  0
 13  8  2  0  0  0  0
 14 13  1  0  0  0  0
 15 11  1  0  0  0  0
 16 15  2  0  0  0  0
 17  4  1  0  0  0  0
 17 16  1  0  0  0  0
 12 14  2  0  0  0  0
M  END
> <#>
53

> <PLATE>
LAT001

> <ROW>
E

> <COL>
8

> <COORD>
E08

> <LATID>
LAT001E08

> <Supplier>
Microsource

> <Suplier_CAT#>
01500260

> <Name>
Pyrithione Zinc

> <Concentration_(mM)>
2.5

> <IC50_(µM)>
9.3

> <Yeast_Active?>
+

> <Pubchem_CID>
26041

> <Description>
Antibacterial, Antifungal, Antiseborrheic

$$$$
