
  -ISIS-  08130814242D

 21 23  0  0  0  0  0  0  0  0999 V2000
   -1.2500    0.0500    0.0000 C   0  0  0  0  0  0  0  0  0  0  0  0
   -1.2500    0.9125    0.0000 C   0  0  0  0  0  0  0  0  0  0  0  0
   -2.0125   -0.3875    0.0000 C   0  0  0  0  0  0  0  0  0  0  0  0
   -2.0125    1.3500    0.0000 C   0  0  0  0  0  0  0  0  0  0  0  0
   -2.7708    0.0500    0.0000 C   0  0  0  0  0  0  0  0  0  0  0  0
   -2.7708    0.9125    0.0000 C   0  0  0  0  0  0  0  0  0  0  0  0
   -0.5125   -0.4042    0.0000 N   0  0  0  0  0  0  0  0  0  0  0  0
   -2.0125   -1.2667    0.0000 O   0  0  0  0  0  0  0  0  0  0  0  0
   -2.0125    2.2125    0.0000 O   0  0  0  0  0  0  0  0  0  0  0  0
   -0.4958    1.3500    0.0000 Cl  0  0  0  0  0  0  0  0  0  0  0  0
    0.2500    0.0333    0.0000 C   0  0  0  0  0  0  0  0  0  0  0  0
   -3.5125    1.3500    0.0000 C   0  0  0  0  0  0  0  0  0  0  0  0
   -3.5125   -0.3875    0.0000 C   0  0  0  0  0  0  0  0  0  0  0  0
    1.0042   -0.4042    0.0000 C   0  0  0  0  0  0  0  0  0  0  0  0
    1.0042   -1.2667    0.0000 C   0  0  0  0  0  0  0  0  0  0  0  0
    1.7542    0.0208    0.0000 C   0  0  0  0  0  0  0  0  0  0  0  0
   -4.2708    0.0500    0.0000 C   0  0  0  0  0  0  0  0  0  0  0  0
   -4.2708    0.9125    0.0000 C   0  0  0  0  0  0  0  0  0  0  0  0
    2.5167   -0.4167    0.0000 C   0  0  0  0  0  0  0  0  0  0  0  0
    1.7542   -1.7042    0.0000 C   0  0  0  0  0  0  0  0  0  0  0  0
    2.5167   -1.2792    0.0000 C   0  0  0  0  0  0  0  0  0  0  0  0
  2  1  2  0  0  0  0
  3  1  1  0  0  0  0
  4  2  1  0  0  0  0
  5  3  1  0  0  0  0
  6  5  2  0  0  0  0
  7  1  1  0  0  0  0
  8  3  2  0  0  0  0
  9  4  2  0  0  0  0
 10  2  1  0  0  0  0
 11  7  1  0  0  0  0
 12  6  1  0  0  0  0
 13  5  1  0  0  0  0
 14 11  1  0  0  0  0
 15 14  2  0  0  0  0
 16 14  1  0  0  0  0
 17 13  2  0  0  0  0
 18 17  1  0  0  0  0
 19 16  2  0  0  0  0
 20 15  1  0  0  0  0
 21 19  1  0  0  0  0
  4  6  1  0  0  0  0
 18 12  2  0  0  0  0
 21 20  2  0  0  0  0
M  END
> <#>
580

> <PLATE>
LAT008

> <ROW>
D

> <COL>
4

> <COORD>
D04

> <LATID>
LAT008D04

> <Supplier>
Chembridge

> <Suplier_CAT#>
5466332

> <Name>
Novel

> <Sec_Name>
130_D08

> <Concentration_(mM)>
2.5

> <IC50_(µM)>
17

> <Yeast_Active?>
-

> <Pubchem_CID>
NULL

$$$$
