
  -ISIS-  08130814242D

 25 28  0  0  0  0  0  0  0  0999 V2000
    5.7436   -4.4877    0.0000 C   0  0  0  0  0  0  0  0  0  0  0  0
    5.0279   -4.8942    0.0000 C   0  0  0  0  0  0  0  0  0  0  0  0
    5.0231   -5.7153    0.0000 C   0  0  0  0  0  0  0  0  0  0  0  0
    5.7332   -6.1310    0.0000 C   0  0  0  0  0  0  0  0  0  0  0  0
    6.4496   -5.7195    0.0000 C   0  0  0  0  0  0  0  0  0  0  0  0
    6.4509   -4.8997    0.0000 C   0  0  0  0  0  0  0  0  0  0  0  0
    6.5752   -3.6647    0.0000 C   0  0  0  0  0  0  0  0  0  0  0  0
    6.9817   -4.3762    0.0000 C   0  0  0  0  0  0  0  0  0  0  0  0
    7.7992   -4.3790    0.0000 C   0  0  0  0  0  0  0  0  0  0  0  0
    8.2113   -3.6710    0.0000 C   0  0  0  0  0  0  0  0  0  0  0  0
    7.7999   -2.9587    0.0000 C   0  0  0  0  0  0  0  0  0  0  0  0
    6.9836   -2.9595    0.0000 C   0  0  0  0  0  0  0  0  0  0  0  0
    5.1458   -1.8069    0.0000 C   0  0  0  0  0  0  0  0  0  0  0  0
    5.7616   -2.3516    0.0000 N   0  0  3  0  0  0  0  0  0  0  0  0
    6.4699   -1.9331    0.0000 C   0  0  0  0  0  0  0  0  0  0  0  0
    6.2892   -1.1302    0.0000 N   0  0  0  0  0  0  0  0  0  0  0  0
    5.4698   -1.0553    0.0000 C   0  0  0  0  0  0  0  0  0  0  0  0
    3.7003   -2.9508    0.0000 C   0  0  0  0  0  0  0  0  0  0  0  0
    3.2835   -3.6611    0.0000 C   0  0  0  0  0  0  0  0  0  0  0  0
    3.6903   -4.3751    0.0000 C   0  0  0  0  0  0  0  0  0  0  0  0
    4.5136   -4.3799    0.0000 C   0  0  0  0  0  0  0  0  0  0  0  0
    4.9285   -3.6648    0.0000 C   0  0  0  0  0  0  0  0  0  0  0  0
    4.5194   -2.9538    0.0000 C   0  0  0  0  0  0  0  0  0  0  0  0
    5.7500   -3.6625    0.0000 C   0  0  3  0  0  0  0  0  0  0  0  0
    4.9167   -2.5375    0.0000 Cl  0  0  0  0  0  0  0  0  0  0  0  0
 14 15  1  0  0  0  0
  6  1  1  0  0  0  0
  1  2  2  0  0  0  0
  3  4  2  0  0  0  0
  7  8  2  0  0  0  0
 13 14  1  0  0  0  0
 15 16  2  0  0  0  0
 16 17  1  0  0  0  0
 17 13  2  0  0  0  0
  8  9  1  0  0  0  0
  4  5  1  0  0  0  0
 18 19  2  0  0  0  0
  9 10  2  0  0  0  0
 19 20  1  0  0  0  0
  2  3  1  0  0  0  0
 20 21  2  0  0  0  0
 10 11  1  0  0  0  0
 21 22  1  0  0  0  0
  5  6  2  0  0  0  0
 22 23  2  0  0  0  0
 23 18  1  0  0  0  0
 11 12  2  0  0  0  0
 22 24  1  0  0  0  0
 24 14  1  0  0  0  0
 24  1  1  0  0  0  0
 24  7  1  0  0  0  0
 12  7  1  0  0  0  0
 23 25  1  0  0  0  0
M  END
> <#>
212

> <PLATE>
LAT003

> <ROW>
D

> <COL>
8

> <COORD>
D08

> <LATID>
LAT003D08

> <Supplier>
Sigma

> <Suplier_CAT#>
C 6019

> <Name>
Clotrimazole

> <Concentration_(mM)>
2.5

> <IC50_(µM)>
0.91

> <Yeast_Active?>
+

> <Pubchem_CID>
2812

> <Description>
Specific inhibitor of Ca2+-activated K+ channels

$$$$
