
  -ISIS-  08130814242D

 17 18  0  0  0  0  0  0  0  0999 V2000
   -2.0958   -0.1375    0.0000 C   0  0  0  0  0  0  0  0  0  0  0  0
   -2.0958   -0.8000    0.0000 C   0  0  0  0  0  0  0  0  0  0  0  0
   -2.6708    0.1958    0.0000 C   0  0  0  0  0  0  0  0  0  0  0  0
   -2.6708   -1.1292    0.0000 C   0  0  0  0  0  0  0  0  0  0  0  0
   -3.2500   -0.1375    0.0000 C   0  0  0  0  0  0  0  0  0  0  0  0
   -3.2500   -0.8000    0.0000 C   0  0  0  0  0  0  0  0  0  0  0  0
   -1.4958    0.1958    0.0000 N   0  0  0  0  0  0  0  0  0  0  0  0
   -2.6708    0.7208    0.0000 O   0  0  0  0  0  0  0  0  0  0  0  0
   -2.6500   -1.5792    0.0000 O   0  0  0  0  0  0  0  0  0  0  0  0
   -1.5625   -1.1000    0.0000 Cl  0  0  0  0  0  0  0  0  0  0  0  0
   -3.8333    0.1958    0.0000 C   0  0  0  0  0  0  0  0  0  0  0  0
   -3.8333   -1.1292    0.0000 C   0  0  0  0  0  0  0  0  0  0  0  0
   -1.4958    0.7000    0.0000 C   0  0  3  0  0  0  0  0  0  0  0  0
   -1.8208    1.1333    0.0000 C   0  0  0  0  0  0  0  0  0  0  0  0
   -0.9708    1.1708    0.0000 C   0  0  0  0  0  0  0  0  0  0  0  0
   -4.4125   -0.1375    0.0000 C   0  0  0  0  0  0  0  0  0  0  0  0
   -4.4125   -0.8000    0.0000 C   0  0  0  0  0  0  0  0  0  0  0  0
  2  1  2  0  0  0  0
  3  1  1  0  0  0  0
  4  2  1  0  0  0  0
  5  3  1  0  0  0  0
  6  5  2  0  0  0  0
  7  1  1  0  0  0  0
  8  3  2  0  0  0  0
  9  4  2  0  0  0  0
 10  2  1  0  0  0  0
 11  5  1  0  0  0  0
 12  6  1  0  0  0  0
 13  7  1  0  0  0  0
 14 13  1  0  0  0  0
 15 13  1  0  0  0  0
 16 11  2  0  0  0  0
 17 16  1  0  0  0  0
  6  4  1  0  0  0  0
 12 17  2  0  0  0  0
M  END
> <#>
559

> <PLATE>
LAT007

> <ROW>
G

> <COL>
11

> <COORD>
G11

> <LATID>
LAT007G11

> <Supplier>
Chembridge

> <Suplier_CAT#>
5472843

> <Name>
Novel

> <Sec_Name>
137_A07

> <Concentration_(mM)>
2.5

> <IC50_(µM)>
>100

> <Yeast_Active?>
-

> <Pubchem_CID>
NULL

$$$$
