
  -ISIS-  08130814242D

 36 37  0  0  0  0  0  0  0  0999 V2000
   -1.8000   -1.8917    0.0000 N   0  3  0  0  0  0  0  0  0  0  0  0
    1.7625   -8.9250    0.0000 N   0  3  0  0  0  0  0  0  0  0  0  0
    2.4750   -9.3375    0.0000 C   0  0  0  0  0  0  0  0  0  0  0  0
   -2.5125   -1.4792    0.0000 C   0  0  0  0  0  0  0  0  0  0  0  0
    1.0417   -9.3375    0.0000 C   0  0  0  0  0  0  0  0  0  0  0  0
   -1.0833   -1.4792    0.0000 C   0  0  0  0  0  0  0  0  0  0  0  0
    2.4750  -10.1667    0.0000 C   0  0  0  0  0  0  0  0  0  0  0  0
   -2.5125   -0.6542    0.0000 C   0  0  0  0  0  0  0  0  0  0  0  0
   -1.8000   -0.2417    0.0000 C   0  0  0  0  0  0  0  0  0  0  0  0
    1.7625  -10.5792    0.0000 C   0  0  0  0  0  0  0  0  0  0  0  0
   -1.0833   -0.6542    0.0000 C   0  0  0  0  0  0  0  0  0  0  0  0
    1.0417  -10.1667    0.0000 C   0  0  0  0  0  0  0  0  0  0  0  0
   -1.8000   -2.7167    0.0000 C   0  0  0  0  0  0  0  0  0  0  0  0
    1.7625   -8.0917    0.0000 C   0  0  0  0  0  0  0  0  0  0  0  0
   -1.8000    0.5833    0.0000 N   0  0  0  0  0  0  0  0  0  0  0  0
    1.7667  -11.4042    0.0000 N   0  0  0  0  0  0  0  0  0  0  0  0
    3.1875   -8.9250    0.0000 C   0  0  0  0  0  0  0  0  0  0  0  0
   -3.2250   -1.8917    0.0000 C   0  0  0  0  0  0  0  0  0  0  0  0
    3.1875  -10.5792    0.0000 C   0  0  0  0  0  0  0  0  0  0  0  0
   -3.2250   -0.2417    0.0000 C   0  0  0  0  0  0  0  0  0  0  0  0
   -0.3625   -1.9000    0.0000 C   0  0  0  0  0  0  0  0  0  0  0  0
    0.3250   -8.9167    0.0000 C   0  0  0  0  0  0  0  0  0  0  0  0
    1.0500   -7.6792    0.0000 C   0  0  0  0  0  0  0  0  0  0  0  0
   -1.0875   -3.1292    0.0000 C   0  0  0  0  0  0  0  0  0  0  0  0
   -1.0875   -3.9542    0.0000 C   0  0  0  0  0  0  0  0  0  0  0  0
   -0.3750   -4.3667    0.0000 C   0  0  0  0  0  0  0  0  0  0  0  0
   -0.3750   -5.2000    0.0000 C   0  0  0  0  0  0  0  0  0  0  0  0
    0.3375   -5.6125    0.0000 C   0  0  0  0  0  0  0  0  0  0  0  0
    0.3375   -6.4417    0.0000 C   0  0  0  0  0  0  0  0  0  0  0  0
    1.0500   -6.8542    0.0000 C   0  0  0  0  0  0  0  0  0  0  0  0
   -3.9458   -0.6542    0.0000 C   0  0  0  0  0  0  0  0  0  0  0  0
    3.9042  -10.1667    0.0000 C   0  0  0  0  0  0  0  0  0  0  0  0
   -3.9458   -1.4792    0.0000 C   0  0  0  0  0  0  0  0  0  0  0  0
    3.9042   -9.3375    0.0000 C   0  0  0  0  0  0  0  0  0  0  0  0
   -3.1875   -2.9542    0.0000 Cl  0  5  0  0  0  0  0  0  0  0  0  0
    2.9292   -8.0417    0.0000 Cl  0  5  0  0  0  0  0  0  0  0  0  0
  2 14  1  0  0  0  0
  3  2  1  0  0  0  0
  4  1  1  0  0  0  0
  5  2  2  0  0  0  0
  6  1  2  0  0  0  0
  7  3  1  0  0  0  0
  8  4  1  0  0  0  0
  9 11  2  0  0  0  0
 10 12  2  0  0  0  0
 11  6  1  0  0  0  0
 12  5  1  0  0  0  0
 13  1  1  0  0  0  0
 14 23  1  0  0  0  0
 15  9  1  0  0  0  0
 16 10  1  0  0  0  0
 17  3  2  0  0  0  0
 18  4  2  0  0  0  0
 19  7  2  0  0  0  0
 20  8  2  0  0  0  0
 21  6  1  0  0  0  0
 22  5  1  0  0  0  0
 23 30  1  0  0  0  0
 24 13  1  0  0  0  0
 25 24  1  0  0  0  0
 26 25  1  0  0  0  0
 27 26  1  0  0  0  0
 28 27  1  0  0  0  0
 29 28  1  0  0  0  0
 30 29  1  0  0  0  0
 31 33  2  0  0  0  0
 32 34  2  0  0  0  0
 33 18  1  0  0  0  0
 34 17  1  0  0  0  0
  9  8  1  0  0  0  0
 31 20  1  0  0  0  0
 10  7  1  0  0  0  0
 32 19  1  0  0  0  0
M  CHG  4   1   1   2   1  35  -1  36  -1
M  END
> <#>
79

> <PLATE>
LAT001

> <ROW>
G

> <COL>
11

> <COORD>
G11

> <LATID>
LAT001G11

> <Supplier>
Microsource

> <Suplier_CAT#>
01503127

> <Name>
Dequalinium Chloride

> <Concentration_(mM)>
2.5

> <IC50_(µM)>
18

> <Yeast_Active?>
+

> <Pubchem_CID>
2497

> <Description>
Antiseptic

$$$$
