
  -ISIS-  08130814242D

 16 17  0  0  0  0  0  0  0  0999 V2000
    0.9375   -0.7292    0.0000 C   0  0  0  0  0  0  0  0  0  0  0  0
    0.9375    0.2125    0.0000 C   0  0  0  0  0  0  0  0  0  0  0  0
    1.7500   -1.2000    0.0000 C   0  0  3  0  0  0  0  0  0  0  0  0
   -0.6833    0.2125    0.0000 C   0  0  0  0  0  0  0  0  0  0  0  0
    0.1292   -1.2000    0.0000 O   0  0  0  0  0  0  0  0  0  0  0  0
    0.1292    0.6833    0.0000 C   0  0  0  0  0  0  0  0  0  0  0  0
   -0.6833   -0.7292    0.0000 C   0  0  0  0  0  0  0  0  0  0  0  0
   -1.4958    0.6833    0.0000 C   0  0  0  0  0  0  0  0  0  0  0  0
    0.1292    1.6125    0.0000 O   0  0  0  0  0  0  0  0  0  0  0  0
   -1.4958   -1.2000    0.0000 C   0  0  0  0  0  0  0  0  0  0  0  0
    2.5500   -1.6542    0.0000 Cl  0  0  0  0  0  0  0  0  0  0  0  0
    2.2167   -0.3875    0.0000 Cl  0  0  0  0  0  0  0  0  0  0  0  0
    1.2792   -2.0042    0.0000 Cl  0  0  0  0  0  0  0  0  0  0  0  0
   -2.3000    0.2125    0.0000 C   0  0  0  0  0  0  0  0  0  0  0  0
   -2.3000   -0.7292    0.0000 C   0  0  0  0  0  0  0  0  0  0  0  0
   -3.1125    0.6833    0.0000 Cl  0  0  0  0  0  0  0  0  0  0  0  0
  2  1  2  0  0  0  0
  3  1  1  0  0  0  0
  4  7  2  0  0  0  0
  5  1  1  0  0  0  0
  6  2  1  0  0  0  0
  7  5  1  0  0  0  0
  8  4  1  0  0  0  0
  9  6  2  0  0  0  0
 10  7  1  0  0  0  0
 11  3  1  0  0  0  0
 12  3  1  0  0  0  0
 13  3  1  0  0  0  0
 14 15  1  0  0  0  0
 15 10  2  0  0  0  0
 16 14  1  0  0  0  0
  4  6  1  0  0  0  0
  8 14  2  0  0  0  0
M  END
> <#>
1792

> <PLATE>
LAT023

> <ROW>
H

> <COL>
5

> <COORD>
H05

> <LATID>
LAT023H05

> <Supplier>
Chembridge

> <Suplier_CAT#>
5567448

> <Name>
Novel

> <Sec_Name>
173_A03

> <Concentration_(mM)>
2.5

> <IC50_(µM)>
20

> <Yeast_Active?>
+

> <Pubchem_CID>
867466

$$$$
