
  -ISIS-  08130814242D

 36 35  0  0  0  0  0  0  0  0999 V2000
    1.5292   -4.3542    0.0000 C   0  0  0  0  0  0  0  0  0  0  0  0
   11.3792   -3.9292    0.0000 C   0  0  0  0  0  0  0  0  0  0  0  0
   10.6667   -4.3417    0.0000 N   0  0  0  0  0  0  0  0  0  0  0  0
    2.2667   -3.9417    0.0000 N   0  0  0  0  0  0  0  0  0  0  0  0
    3.0042   -4.3792    0.0000 C   0  0  0  0  0  0  0  0  0  0  0  0
    9.9417   -3.9292    0.0000 C   0  0  0  0  0  0  0  0  0  0  0  0
    0.8042   -3.9292    0.0000 N   0  0  0  0  0  0  0  0  0  0  0  0
   12.1042   -4.3667    0.0000 N   0  0  0  0  0  0  0  0  0  0  0  0
    1.5292   -5.1042    0.0000 N   0  0  0  0  0  0  0  0  0  0  0  0
   11.3917   -3.1792    0.0000 N   0  0  0  0  0  0  0  0  0  0  0  0
    9.9542   -3.1792    0.0000 N   0  0  0  0  0  0  0  0  0  0  0  0
    3.0167   -5.1417    0.0000 N   0  0  0  0  0  0  0  0  0  0  0  0
    3.7417   -3.9542    0.0000 N   0  0  0  0  0  0  0  0  0  0  0  0
    9.2292   -4.3292    0.0000 N   0  0  0  0  0  0  0  0  0  0  0  0
   12.7542   -3.9917    0.0000 C   0  0  0  0  0  0  0  0  0  0  0  0
    0.0792   -4.3292    0.0000 C   0  0  0  0  0  0  0  0  0  0  0  0
   14.0542   -3.2292    0.0000 C   0  0  0  0  0  0  0  0  0  0  0  0
   -1.3500   -5.1417    0.0000 C   0  0  0  0  0  0  0  0  0  0  0  0
   14.6917   -2.8542    0.0000 Cl  0  0  0  0  0  0  0  0  0  0  0  0
   -2.0708   -5.5542    0.0000 Cl  0  0  0  0  0  0  0  0  0  0  0  0
    0.0792   -5.1542    0.0000 C   0  0  0  0  0  0  0  0  0  0  0  0
   13.4042   -4.3667    0.0000 C   0  0  0  0  0  0  0  0  0  0  0  0
   -0.6250   -3.9125    0.0000 C   0  0  0  0  0  0  0  0  0  0  0  0
   12.7542   -3.2417    0.0000 C   0  0  0  0  0  0  0  0  0  0  0  0
   14.0542   -3.9792    0.0000 C   0  0  0  0  0  0  0  0  0  0  0  0
   -1.3458   -4.3167    0.0000 C   0  0  0  0  0  0  0  0  0  0  0  0
   13.4042   -2.8667    0.0000 C   0  0  0  0  0  0  0  0  0  0  0  0
   -0.6333   -5.5625    0.0000 C   0  0  0  0  0  0  0  0  0  0  0  0
    4.4792   -4.3917    0.0000 C   0  0  0  0  0  0  0  0  0  0  0  0
    8.4292   -3.8917    0.0000 C   0  0  0  0  0  0  0  0  0  0  0  0
    7.6417   -4.3542    0.0000 C   0  0  0  0  0  0  0  0  0  0  0  0
    5.2667   -3.9292    0.0000 C   0  0  0  0  0  0  0  0  0  0  0  0
    6.0667   -4.3667    0.0000 C   0  0  0  0  0  0  0  0  0  0  0  0
    6.8417   -3.9042    0.0000 C   0  0  0  0  0  0  0  0  0  0  0  0
    2.2417   -6.4625    0.0000 Cl  0  0  0  0  0  0  0  0  0  0  0  0
   10.6292   -1.8667    0.0000 Cl  0  0  0  0  0  0  0  0  0  0  0  0
  2  3  1  0  0  0  0
  3  6  1  0  0  0  0
  4  1  1  0  0  0  0
  5  4  1  0  0  0  0
  6 14  1  0  0  0  0
  7  1  1  0  0  0  0
  8  2  1  0  0  0  0
  9  1  2  0  0  0  0
 10  2  2  0  0  0  0
 11  6  2  0  0  0  0
 12  5  2  0  0  0  0
 13  5  1  0  0  0  0
 14 30  1  0  0  0  0
 15  8  1  0  0  0  0
 16  7  1  0  0  0  0
 17 25  1  0  0  0  0
 18 28  1  0  0  0  0
 19 17  1  0  0  0  0
 20 18  1  0  0  0  0
 21 16  1  0  0  0  0
 22 15  1  0  0  0  0
 23 16  2  0  0  0  0
 24 15  2  0  0  0  0
 25 22  2  0  0  0  0
 26 23  1  0  0  0  0
 27 24  1  0  0  0  0
 28 21  2  0  0  0  0
 29 13  1  0  0  0  0
 30 31  1  0  0  0  0
 31 34  1  0  0  0  0
 32 29  1  0  0  0  0
 33 32  1  0  0  0  0
 34 33  1  0  0  0  0
 26 18  2  0  0  0  0
 27 17  2  0  0  0  0
M  END
> <#>
123

> <PLATE>
LAT002

> <ROW>
C

> <COL>
7

> <COORD>
C07

> <LATID>
LAT002C07

> <Supplier>
Microsource

> <Suplier_CAT#>
01500177

> <Name>
Chlorhexidine

> <Concentration_(mM)>
2.5

> <IC50_(µM)>
6.4

> <Yeast_Active?>
+

> <Pubchem_CID>
5353524

> <Description>
Antibacterial (Topical), Disinfectant

$$$$
