
  -ISIS-  08130814242D

 17 18  0  0  0  0  0  0  0  0999 V2000
    7.6470    0.0057    0.0000 O   0  0  0  0  0  0  0  0  0  0  0  0
    6.5050    0.5141    0.0000 C   0  0  0  0  0  0  0  0  0  0  0  0
    5.4938   -0.2207    0.0000 C   0  0  2  0  0  0  0  0  0  0  0  0
    5.4938   -1.4707    0.0000 C   0  0  1  0  0  0  0  0  0  0  0  0
    6.5050   -2.2054    0.0000 O   0  0  0  0  0  0  0  0  0  0  0  0
    4.3049   -1.8569    0.0000 C   0  0  0  0  0  0  0  0  0  0  0  0
    3.5702   -0.8457    0.0000 C   0  0  1  0  0  0  0  0  0  0  0  0
    4.3049    0.1656    0.0000 O   0  0  0  0  0  0  0  0  0  0  0  0
    2.3202   -0.8457    0.0000 N   0  0  3  0  0  0  0  0  0  0  0  0
    1.6952   -1.9282    0.0000 C   0  0  0  0  0  0  0  0  0  0  0  0
    2.3202   -3.0107    0.0000 O   0  0  0  0  0  0  0  0  0  0  0  0
    0.4452   -1.9282    0.0000 N   0  0  0  0  0  0  0  0  0  0  0  0
   -0.1798   -0.8457    0.0000 C   0  0  0  0  0  0  0  0  0  0  0  0
   -1.4298   -0.8457    0.0000 O   0  0  0  0  0  0  0  0  0  0  0  0
    0.4452    0.2369    0.0000 C   0  0  0  0  0  0  0  0  0  0  0  0
    1.6952    0.2369    0.0000 C   0  0  0  0  0  0  0  0  0  0  0  0
   -0.1798    1.3194    0.0000 F   0  0  0  0  0  0  0  0  0  0  0  0
  1  2  1  0  0  0  0
  3  2  1  6  0  0  0
  3  4  1  0  0  0  0
  4  5  1  1  0  0  0
  4  6  1  0  0  0  0
  6  7  1  0  0  0  0
  7  8  1  0  0  0  0
  3  8  1  0  0  0  0
  7  9  1  6  0  0  0
  9 10  1  0  0  0  0
 10 11  2  0  0  0  0
 10 12  1  0  0  0  0
 12 13  1  0  0  0  0
 13 14  2  0  0  0  0
 13 15  1  0  0  0  0
 15 16  2  0  0  0  0
  9 16  1  0  0  0  0
 15 17  1  0  0  0  0
M  END
> <#>
437

> <PLATE>
LAT006

> <ROW>
E

> <COL>
6

> <COORD>
E06

> <LATID>
LAT006E06

> <Supplier>
Sigma

> <Suplier_CAT#>
F-0593

> <Name>
5-Fluoro-2'-Deoxyuridine

> <Concentration_(mM)>
2.5

> <IC50_(µM)>
0.006

> <Yeast_Active?>
-

> <Pubchem_CID>
3363

$$$$
