
  -ISIS-  08130814242D

 17 18  0  0  0  0  0  0  0  0999 V2000
   -0.7333    1.2833    0.0000 C   0  0  0  0  0  0  0  0  0  0  0  0
   -2.4125    0.3208    0.0000 N   0  0  0  0  0  0  0  0  0  0  0  0
   -2.4125    2.2458    0.0000 N   0  0  0  0  0  0  0  0  0  0  0  0
   -1.2958    0.3208    0.0000 C   0  0  0  0  0  0  0  0  0  0  0  0
   -1.2958    2.2458    0.0000 C   0  0  0  0  0  0  0  0  0  0  0  0
   -2.9500    1.2833    0.0000 C   0  0  0  0  0  0  0  0  0  0  0  0
    0.3875    1.2833    0.0000 C   0  0  0  0  0  0  0  0  0  0  0  0
    0.9292    0.3208    0.0000 N   0  0  0  0  0  0  0  0  0  0  0  0
   -0.7333    3.2083    0.0000 O   0  0  0  0  0  0  0  0  0  0  0  0
   -0.7500   -0.6792    0.0000 O   0  0  0  0  0  0  0  0  0  0  0  0
   -4.0708    1.2833    0.0000 O   0  0  0  0  0  0  0  0  0  0  0  0
    2.0500    0.3208    0.0000 C   0  0  3  0  0  0  0  0  0  0  0  0
    2.6042   -0.6542    0.0000 C   0  0  0  0  0  0  0  0  0  0  0  0
    2.6042    1.2833    0.0000 C   0  0  0  0  0  0  0  0  0  0  0  0
    3.7292   -0.6542    0.0000 C   0  0  0  0  0  0  0  0  0  0  0  0
    3.7292    1.2833    0.0000 C   0  0  0  0  0  0  0  0  0  0  0  0
    4.2667    0.3208    0.0000 C   0  0  0  0  0  0  0  0  0  0  0  0
  2  4  1  0  0  0  0
  3  5  1  0  0  0  0
  4  1  1  0  0  0  0
  5  1  1  0  0  0  0
  6  3  1  0  0  0  0
  7  1  2  0  0  0  0
  8  7  1  0  0  0  0
  9  5  2  0  0  0  0
 10  4  2  0  0  0  0
 11  6  2  0  0  0  0
 12  8  1  0  0  0  0
 13 12  1  0  0  0  0
 14 12  1  0  0  0  0
 15 13  1  0  0  0  0
 16 14  1  0  0  0  0
 17 16  1  0  0  0  0
  6  2  1  0  0  0  0
 15 17  1  0  0  0  0
M  END
> <#>
843

> <PLATE>
LAT011

> <ROW>
C

> <COL>
7

> <COORD>
C07

> <LATID>
LAT011C07

> <Supplier>
Chembridge

> <Suplier_CAT#>
5635486

> <Name>
Novel

> <Sec_Name>
193_E11

> <Concentration_(mM)>
2.5

> <IC50_(µM)>
62

> <Yeast_Active?>
-

> <Pubchem_CID>
5335688

$$$$
