
  -ISIS-  08130814242D

 25 27  0  0  0  0  0  0  0  0999 V2000
   -0.3208   -2.3792    0.0000 C   0  0  0  0  0  0  0  0  0  0  0  0
   -0.2625   -1.5000    0.0000 C   0  0  0  0  0  0  0  0  0  0  0  0
   -0.2833   -1.2042    0.0000 C   0  0  3  0  0  0  0  0  0  0  0  0
   -0.5708   -2.5167    0.0000 C   0  0  0  0  0  0  0  0  0  0  0  0
   -0.0125   -1.9875    0.0000 N   0  0  0  0  0  0  0  0  0  0  0  0
   -0.0708   -2.5167    0.0000 C   0  0  0  0  0  0  0  0  0  0  0  0
   -0.0125   -1.6375    0.0000 N   0  0  0  0  0  0  0  0  0  0  0  0
   -0.3208   -2.0875    0.0000 C   0  0  0  0  0  0  0  0  0  0  0  0
   -0.5208   -1.6167    0.0000 O   0  0  0  0  0  0  0  0  0  0  0  0
   -0.5458   -1.1000    0.0000 C   0  0  0  0  0  0  0  0  0  0  0  0
   -0.5708   -2.8042    0.0000 C   0  0  0  0  0  0  0  0  0  0  0  0
   -0.0708   -2.8042    0.0000 C   0  0  0  0  0  0  0  0  0  0  0  0
   -0.3208   -2.9500    0.0000 C   0  0  0  0  0  0  0  0  0  0  0  0
    0.0292   -1.2042    0.0000 O   0  0  0  0  0  0  0  0  0  0  0  0
    0.1667   -2.3500    0.0000 O   0  0  0  0  0  0  0  0  0  0  0  0
   -0.2333   -0.8375    0.0000 C   0  0  0  0  0  0  0  0  0  0  0  0
   -0.8125   -2.3792    0.0000 C   0  0  0  0  0  0  0  0  0  0  0  0
   -0.5708   -0.8292    0.0000 C   0  0  0  0  0  0  0  0  0  0  0  0
   -0.7833   -1.2667    0.0000 C   0  0  0  0  0  0  0  0  0  0  0  0
   -0.8125   -2.9500    0.0000 C   0  0  0  0  0  0  0  0  0  0  0  0
   -1.0833   -2.5167    0.0000 C   0  0  0  0  0  0  0  0  0  0  0  0
   -0.8333   -0.7042    0.0000 C   0  0  0  0  0  0  0  0  0  0  0  0
   -1.0333   -1.1500    0.0000 C   0  0  0  0  0  0  0  0  0  0  0  0
   -1.0833   -2.8042    0.0000 C   0  0  0  0  0  0  0  0  0  0  0  0
   -1.0625   -0.8792    0.0000 C   0  0  0  0  0  0  0  0  0  0  0  0
  2  7  1  0  0  0  0
  3  2  1  0  0  0  0
  4  1  1  0  0  0  0
  5  8  2  0  0  0  0
  6  1  2  0  0  0  0
  7  5  1  0  0  0  0
  8  1  1  0  0  0  0
  9  2  2  0  0  0  0
 10  3  1  0  0  0  0
 11  4  2  0  0  0  0
 12  6  1  0  0  0  0
 13 12  2  0  0  0  0
 14  3  1  0  0  0  0
 15  6  1  0  0  0  0
 16  3  1  0  0  0  0
 17  4  1  0  0  0  0
 18 10  2  0  0  0  0
 19 10  1  0  0  0  0
 20 11  1  0  0  0  0
 21 17  2  0  0  0  0
 22 18  1  0  0  0  0
 23 19  2  0  0  0  0
 24 21  1  0  0  0  0
 25 23  1  0  0  0  0
 11 13  1  0  0  0  0
 20 24  2  0  0  0  0
 25 22  2  0  0  0  0
M  END
> <#>
1097

> <PLATE>
LAT014

> <ROW>
A

> <COL>
9

> <COORD>
A09

> <LATID>
LAT014A09

> <Supplier>
Chembridge

> <Suplier_CAT#>
5251307

> <Name>
Novel

> <Concentration_(mM)>
2.5

> <IC50_(µM)>
inactive

> <Yeast_Active?>
-

> <Pubchem_CID>
NULL

$$$$
