
  -ISIS-  08130814242D

 24 25  0  0  0  0  0  0  0  0999 V2000
    7.1711   -5.0299    0.0000 C   0  0  0  0  0  0  0  0  0  0  0  0
    6.7544   -5.7403    0.0000 C   0  0  0  0  0  0  0  0  0  0  0  0
    7.1611   -6.4543    0.0000 C   0  0  0  0  0  0  0  0  0  0  0  0
    7.9845   -6.4591    0.0000 C   0  0  0  0  0  0  0  0  0  0  0  0
    8.3994   -5.7440    0.0000 C   0  0  0  0  0  0  0  0  0  0  0  0
    7.9902   -5.0329    0.0000 C   0  0  0  0  0  0  0  0  0  0  0  0
    4.2959   -1.4735    0.0000 C   0  0  0  0  0  0  0  0  0  0  0  0
    3.4727   -1.4682    0.0000 C   0  0  0  0  0  0  0  0  0  0  0  0
    3.0583   -2.1774    0.0000 C   0  0  0  0  0  0  0  0  0  0  0  0
    3.4660   -2.8923    0.0000 C   0  0  0  0  0  0  0  0  0  0  0  0
    4.2923   -2.8936    0.0000 C   0  0  0  0  0  0  0  0  0  0  0  0
    4.7030   -2.1839    0.0000 C   0  0  0  0  0  0  0  0  0  0  0  0
    4.7042   -3.6042    0.0000 C   0  0  0  0  0  0  0  0  0  0  0  0
    5.5250   -3.6042    0.0000 C   0  0  0  0  0  0  0  0  0  0  0  0
    5.9375   -4.3167    0.0000 C   0  0  0  0  0  0  0  0  0  0  0  0
    6.7583   -4.3167    0.0000 N   0  0  0  0  0  0  0  0  0  0  0  0
    4.7118   -0.7611    0.0000 O   0  0  0  0  0  0  0  0  0  0  0  0
    3.0644   -0.7514    0.0000 O   0  0  0  0  0  0  0  0  0  0  0  0
    5.5254   -5.0314    0.0000 O   0  0  0  0  0  0  0  0  0  0  0  0
    8.4046   -4.3195    0.0000 C   0  0  0  0  0  0  0  0  0  0  0  0
    9.2271   -4.3194    0.0000 O   0  0  0  0  0  0  0  0  0  0  0  0
    7.9915   -3.6017    0.0000 O   0  0  0  0  0  0  0  0  0  0  0  0
    2.2375   -0.7500    0.0000 C   0  0  0  0  0  0  0  0  0  0  0  0
    5.5333   -0.7583    0.0000 C   0  0  0  0  0  0  0  0  0  0  0  0
 12  7  1  0  0  0  0
  6  1  1  0  0  0  0
 11 13  1  0  0  0  0
  1  2  2  0  0  0  0
 13 14  2  0  0  0  0
  3  4  2  0  0  0  0
 14 15  1  0  0  0  0
  7  8  2  0  0  0  0
 15 16  1  0  0  0  0
 16  1  1  0  0  0  0
  7 17  1  0  0  0  0
  8  9  1  0  0  0  0
  8 18  1  0  0  0  0
  4  5  1  0  0  0  0
 15 19  2  0  0  0  0
  9 10  2  0  0  0  0
  6 20  1  0  0  0  0
  2  3  1  0  0  0  0
 10 11  1  0  0  0  0
 20 21  1  0  0  0  0
 20 22  2  0  0  0  0
  5  6  2  0  0  0  0
 18 23  1  0  0  0  0
 11 12  2  0  0  0  0
 17 24  1  0  0  0  0
M  END
> <#>
280

> <PLATE>
LAT004

> <ROW>
H

> <COL>
6

> <COORD>
H06

> <LATID>
LAT004H06

> <Supplier>
Sigma

> <Suplier_CAT#>
T 0318

> <Name>
Tranilast

> <Concentration_(mM)>
2.5

> <IC50_(µM)>
22

> <Yeast_Active?>
-

> <Pubchem_CID>
5527

> <Description>
Inhibits LTC4 and PGE2 formation but does not inhibit cyclooxygenase or lipoxygenase activity; anti-asthma drug

$$$$
