
  -ISIS-  08130814242D

 20 22  0  0  0  0  0  0  0  0999 V2000
    2.6292   -0.3500    0.0000 C   0  0  0  0  0  0  0  0  0  0  0  0
    1.6792   -0.3500    0.0000 C   0  0  0  0  0  0  0  0  0  0  0  0
    2.6292   -1.0667    0.0000 C   0  0  0  0  0  0  0  0  0  0  0  0
   -2.5125   -1.1792    0.0000 C   0  0  0  0  0  0  0  0  0  0  0  0
    4.0792   -0.3500    0.0000 C   0  0  0  0  0  0  0  0  0  0  0  0
    3.3375   -1.5375    0.0000 O   0  0  0  0  0  0  0  0  0  0  0  0
    0.2875    0.4333    0.0000 N   0  0  0  0  0  0  0  0  0  0  0  0
   -2.9833   -0.3667    0.0000 C   0  0  0  0  0  0  0  0  0  0  0  0
    4.0792   -1.0667    0.0000 C   0  0  0  0  0  0  0  0  0  0  0  0
   -3.1500   -1.8792    0.0000 O   0  0  0  0  0  0  0  0  0  0  0  0
   -3.9125   -0.5792    0.0000 O   0  0  0  0  0  0  0  0  0  0  0  0
   -3.9833   -1.4875    0.0000 C   0  0  0  0  0  0  0  0  0  0  0  0
    1.2042    0.4458    0.0000 N   0  0  0  0  0  0  0  0  0  0  0  0
   -1.5708   -1.1792    0.0000 C   0  0  0  0  0  0  0  0  0  0  0  0
    1.2292   -1.1500    0.0000 O   0  0  0  0  0  0  0  0  0  0  0  0
   -2.5125    0.4458    0.0000 C   0  0  0  0  0  0  0  0  0  0  0  0
   -0.1708   -0.3667    0.0000 C   0  0  0  0  0  0  0  0  0  0  0  0
   -1.1000   -0.3667    0.0000 C   0  0  0  0  0  0  0  0  0  0  0  0
   -1.5708    0.4458    0.0000 C   0  0  0  0  0  0  0  0  0  0  0  0
    1.7542   -1.3667    0.0000 C   0  0  0  0  0  0  0  0  0  0  0  0
  2  1  1  0  0  0  0
  3  1  2  0  0  0  0
  4 14  2  0  0  0  0
  5  1  1  0  0  0  0
  6  3  1  0  0  0  0
  7 13  1  0  0  0  0
  8 16  2  0  0  0  0
  9  5  2  0  0  0  0
 10  4  1  0  0  0  0
 11  8  1  0  0  0  0
 12 10  1  0  0  0  0
 13  2  1  0  0  0  0
 14 18  1  0  0  0  0
 15  2  2  0  0  0  0
 16 19  1  0  0  0  0
 17  7  2  0  0  0  0
 18 17  1  0  0  0  0
 19 18  2  0  0  0  0
 20  3  1  0  0  0  0
  6  9  1  0  0  0  0
  4  8  1  0  0  0  0
 12 11  1  0  0  0  0
M  END
> <#>
557

> <PLATE>
LAT007

> <ROW>
E

> <COL>
11

> <COORD>
E11

> <LATID>
LAT007E11

> <Supplier>
Chembridge

> <Suplier_CAT#>
5472332

> <Name>
Novel

> <Sec_Name>
136_G05

> <Concentration_(mM)>
2.5

> <IC50_(µM)>
95

> <Yeast_Active?>
-

> <Pubchem_CID>
769083

$$$$
