
  -ISIS-  08130814242D

 22 24  0  0  0  0  0  0  0  0999 V2000
   -7.5417   -1.1167    0.0000 N   0  0  3  0  0  0  0  0  0  0  0  0
   -5.6708    1.5000    0.0000 C   0  0  0  0  0  0  0  0  0  0  0  0
   -7.5000    4.0792    0.0000 N   0  0  0  0  0  0  0  0  0  0  0  0
   -2.5833    1.4000    0.0000 C   0  0  3  0  0  0  0  0  0  0  0  0
  -10.5500   -0.1375    0.0000 C   0  0  0  0  0  0  0  0  0  0  0  0
   -7.5917   -4.4042    0.0000 C   0  0  0  0  0  0  0  0  0  0  0  0
  -10.5042    3.0958    0.0000 C   0  0  0  0  0  0  0  0  0  0  0  0
   -4.9708   -5.9500    0.0000 C   0  0  0  0  0  0  0  0  0  0  0  0
   -2.0625   -4.5500    0.0000 O   0  0  0  0  0  0  0  0  0  0  0  0
   -4.9208   -9.1875    0.0000 C   0  0  0  0  0  0  0  0  0  0  0  0
   -2.5333   -1.7792    0.0000 F   0  0  0  0  0  0  0  0  0  0  0  0
   -2.4458    4.5417    0.0000 F   0  0  0  0  0  0  0  0  0  0  0  0
    0.7000    1.4000    0.0000 F   0  0  0  0  0  0  0  0  0  0  0  0
  -13.2667   -1.6375    0.0000 C   0  0  0  0  0  0  0  0  0  0  0  0
  -13.1792    4.6875    0.0000 C   0  0  0  0  0  0  0  0  0  0  0  0
   -2.1500  -10.9292    0.0000 C   0  0  0  0  0  0  0  0  0  0  0  0
   -7.7292  -10.7875    0.0000 C   0  0  0  0  0  0  0  0  0  0  0  0
  -16.0000   -0.0292    0.0000 C   0  0  0  0  0  0  0  0  0  0  0  0
  -15.9500    3.1958    0.0000 C   0  0  0  0  0  0  0  0  0  0  0  0
   -7.7292  -13.9792    0.0000 C   0  0  0  0  0  0  0  0  0  0  0  0
   -2.1500  -14.1167    0.0000 C   0  0  0  0  0  0  0  0  0  0  0  0
   -5.2083  -15.6667    0.0000 C   0  0  0  0  0  0  0  0  0  0  0  0
  2  1  1  0  0  0  0
  3  2  2  0  0  0  0
  4  2  1  0  0  0  0
  5  1  1  0  0  0  0
  6  1  1  0  0  0  0
  7  5  2  0  0  0  0
  8  6  1  0  0  0  0
  9  8  2  0  0  0  0
 10  8  1  0  0  0  0
 11  4  1  0  0  0  0
 12  4  1  0  0  0  0
 13  4  1  0  0  0  0
 14  5  1  0  0  0  0
 15  7  1  0  0  0  0
 16 10  2  0  0  0  0
 17 10  1  0  0  0  0
 18 14  2  0  0  0  0
 19 18  1  0  0  0  0
 20 17  2  0  0  0  0
 21 16  1  0  0  0  0
 22 20  1  0  0  0  0
  7  3  1  0  0  0  0
 15 19  2  0  0  0  0
 21 22  2  0  0  0  0
M  END
> <#>
682

> <PLATE>
LAT009

> <ROW>
B

> <COL>
7

> <COORD>
B07

> <LATID>
LAT009B07

> <Supplier>
Chembridge

> <Suplier_CAT#>
5549469

> <Name>
Novel

> <Sec_Name>
168_E05

> <Concentration_(mM)>
2.5

> <IC50_(µM)>
8

> <Yeast_Active?>
-

> <Pubchem_CID>
768872

$$$$
