
  -ISIS-  08130814242D

 22 23  0  0  0  0  0  0  0  0999 V2000
   -1.8458   -0.8167    0.0000 C   0  0  0  0  0  0  0  0  0  0  0  0
    2.1042    0.1333    0.0000 C   0  0  0  0  0  0  0  0  0  0  0  0
    1.5375   -0.8500    0.0000 C   0  0  0  0  0  0  0  0  0  0  0  0
   -0.1458    0.1833    0.0000 N   0  0  0  0  0  0  0  0  0  0  0  0
   -2.9958   -0.8167    0.0000 C   0  0  3  0  0  0  0  0  0  0  0  0
    3.2042    0.1333    0.0000 C   0  0  0  0  0  0  0  0  0  0  0  0
   -1.2958    0.1833    0.0000 N   0  0  0  0  0  0  0  0  0  0  0  0
   -1.2958   -1.7875    0.0000 O   0  0  0  0  0  0  0  0  0  0  0  0
    0.4500   -0.8500    0.0000 C   0  0  0  0  0  0  0  0  0  0  0  0
    2.1042   -1.8167    0.0000 C   0  0  0  0  0  0  0  0  0  0  0  0
   -3.5125    0.1625    0.0000 C   0  0  0  0  0  0  0  0  0  0  0  0
    3.8042   -0.8500    0.0000 C   0  0  0  0  0  0  0  0  0  0  0  0
    1.5542    1.1125    0.0000 Cl  0  0  0  0  0  0  0  0  0  0  0  0
    3.2500   -1.8167    0.0000 C   0  0  0  0  0  0  0  0  0  0  0  0
    4.9375   -0.8500    0.0000 Cl  0  0  0  0  0  0  0  0  0  0  0  0
   -3.6000   -1.7667    0.0000 O   0  0  0  0  0  0  0  0  0  0  0  0
   -4.5958    0.1625    0.0000 C   0  0  0  0  0  0  0  0  0  0  0  0
   -2.9208    1.1333    0.0000 C   0  0  0  0  0  0  0  0  0  0  0  0
   -4.7500   -1.7542    0.0000 C   0  0  0  0  0  0  0  0  0  0  0  0
   -5.1583    1.1333    0.0000 C   0  0  0  0  0  0  0  0  0  0  0  0
   -3.4833    2.0833    0.0000 C   0  0  0  0  0  0  0  0  0  0  0  0
   -4.5958    2.0833    0.0000 C   0  0  0  0  0  0  0  0  0  0  0  0
  2  3  1  0  0  0  0
  3  9  1  0  0  0  0
  4  7  1  0  0  0  0
  5  1  1  0  0  0  0
  6  2  2  0  0  0  0
  7  1  1  0  0  0  0
  8  1  2  0  0  0  0
  9  4  2  0  0  0  0
 10  3  2  0  0  0  0
 11  5  1  0  0  0  0
 12 14  2  0  0  0  0
 13  2  1  0  0  0  0
 14 10  1  0  0  0  0
 15 12  1  0  0  0  0
 16  5  1  0  0  0  0
 17 11  1  0  0  0  0
 18 11  2  0  0  0  0
 19 16  1  0  0  0  0
 20 17  2  0  0  0  0
 21 18  1  0  0  0  0
 22 21  2  0  0  0  0
 22 20  1  0  0  0  0
  6 12  1  0  0  0  0
M  END
> <#>
607

> <PLATE>
LAT008

> <ROW>
G

> <COL>
7

> <COORD>
G07

> <LATID>
LAT008G07

> <Supplier>
Chembridge

> <Suplier_CAT#>
5523086

> <Name>
Novel

> <Sec_Name>
145_H06

> <Concentration_(mM)>
2.5

> <IC50_(µM)>
8.5

> <Yeast_Active?>
-

> <Pubchem_CID>
870847

$$$$
