
  -ISIS-  08130814242D

 29 33  0  0  0  0  0  0  0  0999 V2000
    0.7167   -0.9667    0.0000 C   0  0  0  0  0  0  0  0  0  0  0  0
    0.0250   -1.3792    0.0000 C   0  0  0  0  0  0  0  0  0  0  0  0
    1.4417   -2.1792    0.0000 N   0  0  0  0  0  0  0  0  0  0  0  0
    1.4375   -1.3667    0.0000 C   0  0  3  0  0  0  0  0  0  0  0  0
    0.0250   -2.1917    0.0000 C   0  0  0  0  0  0  0  0  0  0  0  0
    0.7375   -2.6000    0.0000 C   0  0  0  0  0  0  0  0  0  0  0  0
    0.7125   -0.1542    0.0000 C   0  0  0  0  0  0  0  0  0  0  0  0
   -0.6833   -2.6042    0.0000 C   0  0  0  0  0  0  0  0  0  0  0  0
    4.2750    0.3208    0.0000 C   0  0  0  0  0  0  0  0  0  0  0  0
    2.1500   -0.9417    0.0000 C   0  0  0  0  0  0  0  0  0  0  0  0
    3.5667   -0.1042    0.0000 C   0  0  0  0  0  0  0  0  0  0  0  0
    0.7417   -3.4292    0.0000 C   0  0  0  0  0  0  0  0  0  0  0  0
    4.2667    1.1458    0.0000 O   0  0  0  0  0  0  0  0  0  0  0  0
    1.4167    0.2583    0.0000 O   0  0  0  0  0  0  0  0  0  0  0  0
   -0.6833   -3.4292    0.0000 C   0  0  0  0  0  0  0  0  0  0  0  0
    2.8667   -1.3500    0.0000 C   0  0  0  0  0  0  0  0  0  0  0  0
    2.1292   -0.1250    0.0000 C   0  0  0  0  0  0  0  0  0  0  0  0
    2.8417    0.3000    0.0000 C   0  0  0  0  0  0  0  0  0  0  0  0
    3.5750   -0.9292    0.0000 C   0  0  0  0  0  0  0  0  0  0  0  0
    0.0292   -3.8417    0.0000 C   0  0  0  0  0  0  0  0  0  0  0  0
   -0.6833   -0.9875    0.0000 C   0  0  0  0  0  0  0  0  0  0  0  0
    4.9917   -0.0875    0.0000 O   0  0  0  0  0  0  0  0  0  0  0  0
    0.0042    0.2375    0.0000 C   0  0  0  0  0  0  0  0  0  0  0  0
   -0.6875   -0.1750    0.0000 C   0  0  0  0  0  0  0  0  0  0  0  0
   -1.4000   -2.1917    0.0000 C   0  0  0  0  0  0  0  0  0  0  0  0
   -1.4000   -3.8500    0.0000 C   0  0  0  0  0  0  0  0  0  0  0  0
    5.0042   -0.9125    0.0000 C   0  0  0  0  0  0  0  0  0  0  0  0
   -2.1125   -2.6125    0.0000 C   0  0  0  0  0  0  0  0  0  0  0  0
   -2.1125   -3.4375    0.0000 C   0  0  0  0  0  0  0  0  0  0  0  0
  2  1  2  0  0  0  0
  3  4  1  0  0  0  0
  4  1  1  0  0  0  0
  5  2  1  0  0  0  0
  6  3  1  0  0  0  0
  7  1  1  0  0  0  0
  8  5  1  0  0  0  0
  9 11  1  0  0  0  0
 10  4  1  0  0  0  0
 11 18  1  0  0  0  0
 12  6  1  0  0  0  0
 13  9  2  0  0  0  0
 14  7  2  0  0  0  0
 15  8  1  0  0  0  0
 16 10  2  0  0  0  0
 17 10  1  0  0  0  0
 18 17  2  0  0  0  0
 19 16  1  0  0  0  0
 20 12  2  0  0  0  0
 21  2  1  0  0  0  0
 22  9  1  0  0  0  0
 23  7  1  0  0  0  0
 24 23  1  0  0  0  0
 25  8  2  0  0  0  0
 26 15  2  0  0  0  0
 27 22  1  0  0  0  0
 28 25  1  0  0  0  0
 29 28  2  0  0  0  0
 24 21  1  0  0  0  0
  5  6  2  0  0  0  0
 19 11  2  0  0  0  0
 15 20  1  0  0  0  0
 26 29  1  0  0  0  0
M  END
> <#>
844

> <PLATE>
LAT011

> <ROW>
D

> <COL>
7

> <COORD>
D07

> <LATID>
LAT011D07

> <Supplier>
Chembridge

> <Suplier_CAT#>
5647584

> <Name>
Novel

> <Sec_Name>
197_D11

> <Concentration_(mM)>
2.5

> <IC50_(µM)>
>100

> <Yeast_Active?>
-

> <Pubchem_CID>
1103174

$$$$
