
  -ISIS-  08130814242D

 26 28  0  0  0  0  0  0  0  0999 V2000
   -0.7333   -0.6000    0.0000 N   0  0  3  0  0  0  0  0  0  0  0  0
   -1.0500   -1.4167    0.0000 C   0  0  0  0  0  0  0  0  0  0  0  0
    0.4000   -1.4542    0.0000 C   0  0  0  0  0  0  0  0  0  0  0  0
    0.1500   -0.6000    0.0000 C   0  0  0  0  0  0  0  0  0  0  0  0
   -0.3333   -1.9792    0.0000 S   0  0  0  0  0  0  0  0  0  0  0  0
   -4.9458    1.3208    0.0000 N   0  3  0  0  0  0  0  0  0  0  0  0
    1.2500   -1.7542    0.0000 C   0  0  0  0  0  0  0  0  0  0  0  0
   -1.2208    0.1333    0.0000 C   0  0  0  0  0  0  0  0  0  0  0  0
   -4.0500    1.4208    0.0000 C   0  0  0  0  0  0  0  0  0  0  0  0
   -1.9125   -1.6500    0.0000 S   0  0  0  0  0  0  0  0  0  0  0  0
    1.9167   -1.1792    0.0000 C   0  0  0  0  0  0  0  0  0  0  0  0
   -3.5333    0.7000    0.0000 C   0  0  0  0  0  0  0  0  0  0  0  0
   -5.5458    1.9958    0.0000 O   0  5  0  0  0  0  0  0  0  0  0  0
   -5.3500    0.5208    0.0000 O   0  0  0  0  0  0  0  0  0  0  0  0
    0.6500    0.1458    0.0000 O   0  0  0  0  0  0  0  0  0  0  0  0
   -2.1125    0.0500    0.0000 N   0  0  0  0  0  0  0  0  0  0  0  0
    2.7667   -1.4792    0.0000 C   0  0  0  0  0  0  0  0  0  0  0  0
   -2.6333    0.7833    0.0000 C   0  0  0  0  0  0  0  0  0  0  0  0
    2.9292   -2.3542    0.0000 F   0  0  0  0  0  0  0  0  0  0  0  0
   -3.6708    2.2500    0.0000 C   0  0  0  0  0  0  0  0  0  0  0  0
   -2.7708    2.3458    0.0000 C   0  0  0  0  0  0  0  0  0  0  0  0
    1.7667   -0.3000    0.0000 C   0  0  0  0  0  0  0  0  0  0  0  0
    3.4542   -0.9000    0.0000 C   0  0  0  0  0  0  0  0  0  0  0  0
   -2.2625    1.6000    0.0000 C   0  0  0  0  0  0  0  0  0  0  0  0
    2.4375    0.2708    0.0000 C   0  0  0  0  0  0  0  0  0  0  0  0
    3.3000   -0.0292    0.0000 C   0  0  0  0  0  0  0  0  0  0  0  0
  2  1  1  0  0  0  0
  3  4  1  0  0  0  0
  4  1  1  0  0  0  0
  5  2  1  0  0  0  0
  6  9  1  0  0  0  0
  7  3  2  0  0  0  0
  8  1  1  0  0  0  0
  9 12  2  0  0  0  0
 10  2  2  0  0  0  0
 11  7  1  0  0  0  0
 12 18  1  0  0  0  0
 13  6  1  0  0  0  0
 14  6  2  0  0  0  0
 15  4  2  0  0  0  0
 16  8  1  0  0  0  0
 17 11  2  0  0  0  0
 18 16  1  0  0  0  0
 19 17  1  0  0  0  0
 20 21  2  0  0  0  0
 21 24  1  0  0  0  0
 22 11  1  0  0  0  0
 23 17  1  0  0  0  0
 24 18  2  0  0  0  0
 25 22  2  0  0  0  0
 26 25  1  0  0  0  0
  3  5  1  0  0  0  0
 20  9  1  0  0  0  0
 23 26  2  0  0  0  0
M  CHG  2   6   1  13  -1
M  END
> <#>
818

> <PLATE>
LAT011

> <ROW>
B

> <COL>
4

> <COORD>
B04

> <LATID>
LAT011B04

> <Supplier>
Chembridge

> <Suplier_CAT#>
5661098

> <Name>
Novel

> <Sec_Name>
206_H02

> <Concentration_(mM)>
2.5

> <IC50_(µM)>
28

> <Yeast_Active?>
+

> <Pubchem_CID>
1355072

$$$$
