
  -ISIS-  08130814242D

 28 30  0  0  0  0  0  0  0  0999 V2000
    5.4667   -1.4042    0.0000 C   0  0  0  0  0  0  0  0  0  0  0  0
    4.9667   -1.9542    0.0000 O   0  0  0  0  0  0  0  0  0  0  0  0
    5.1000   -0.7542    0.0000 C   0  0  0  0  0  0  0  0  0  0  0  0
    6.2167   -1.4875    0.0000 C   0  0  0  0  0  0  0  0  0  0  0  0
    4.2792   -1.6542    0.0000 C   0  0  0  0  0  0  0  0  0  0  0  0
    1.6792   -1.6542    0.0000 C   0  0  0  0  0  0  0  0  0  0  0  0
    2.9792   -1.6542    0.0000 N   0  0  0  0  0  0  0  0  0  0  0  0
    4.3542   -0.9042    0.0000 C   0  0  0  0  0  0  0  0  0  0  0  0
    7.4000   -0.9542    0.0000 C   0  0  0  0  0  0  0  0  0  0  0  0
    6.6542   -0.8792    0.0000 C   0  0  0  0  0  0  0  0  0  0  0  0
    3.6292   -2.0292    0.0000 C   0  0  0  0  0  0  0  0  0  0  0  0
    2.3292   -2.0292    0.0000 N   0  0  0  0  0  0  0  0  0  0  0  0
    7.7042   -1.6375    0.0000 C   0  0  0  0  0  0  0  0  0  0  0  0
    1.6875   -0.9042    0.0000 O   0  0  0  0  0  0  0  0  0  0  0  0
    6.5167   -2.1667    0.0000 C   0  0  0  0  0  0  0  0  0  0  0  0
    7.2667   -2.2500    0.0000 C   0  0  0  0  0  0  0  0  0  0  0  0
    1.0292   -2.0292    0.0000 C   0  0  0  0  0  0  0  0  0  0  0  0
    0.3875   -1.6500    0.0000 O   0  0  0  0  0  0  0  0  0  0  0  0
    7.8375   -0.3500    0.0000 Cl  0  0  0  0  0  0  0  0  0  0  0  0
   -0.2500   -2.0292    0.0000 C   0  0  0  0  0  0  0  0  0  0  0  0
   -0.9125   -1.6500    0.0000 C   0  0  0  0  0  0  0  0  0  0  0  0
   -1.5625   -2.0292    0.0000 C   0  0  0  0  0  0  0  0  0  0  0  0
    8.4500   -1.7167    0.0000 O   0  0  0  0  0  0  0  0  0  0  0  0
   -0.9125   -3.1542    0.0000 C   0  0  0  0  0  0  0  0  0  0  0  0
   -0.2500   -2.7792    0.0000 C   0  0  0  0  0  0  0  0  0  0  0  0
   -1.5625   -2.7792    0.0000 C   0  0  0  0  0  0  0  0  0  0  0  0
   -2.2125   -1.6500    0.0000 C   0  0  0  0  0  0  0  0  0  0  0  0
    8.7542   -2.4042    0.0000 C   0  0  0  0  0  0  0  0  0  0  0  0
  2  1  1  0  0  0  0
  3  1  2  0  0  0  0
  4  1  1  0  0  0  0
  5  2  1  0  0  0  0
  6 12  1  0  0  0  0
  7 11  2  0  0  0  0
  8  3  1  0  0  0  0
  9 10  1  0  0  0  0
 10  4  2  0  0  0  0
 11  5  1  0  0  0  0
 12  7  1  0  0  0  0
 13 16  1  0  0  0  0
 14  6  2  0  0  0  0
 15  4  1  0  0  0  0
 16 15  2  0  0  0  0
 17  6  1  0  0  0  0
 18 17  1  0  0  0  0
 19  9  1  0  0  0  0
 20 18  1  0  0  0  0
 21 20  1  0  0  0  0
 22 21  2  0  0  0  0
 23 13  1  0  0  0  0
 24 25  1  0  0  0  0
 25 20  2  0  0  0  0
 26 24  2  0  0  0  0
 27 22  1  0  0  0  0
 28 23  1  0  0  0  0
  5  8  2  0  0  0  0
  9 13  2  0  0  0  0
 26 22  1  0  0  0  0
M  END
> <#>
587

> <PLATE>
LAT008

> <ROW>
C

> <COL>
5

> <COORD>
C05

> <LATID>
LAT008C05

> <Supplier>
Chembridge

> <Suplier_CAT#>
5469746

> <Name>
Novel

> <Sec_Name>
133_D10

> <Concentration_(mM)>
2.5

> <IC50_(µM)>
100

> <Yeast_Active?>
-

> <Pubchem_CID>
1349841

$$$$
