
  -ISIS-  08130814242D

 20 22  0  0  0  0  0  0  0  0999 V2000
   -2.5708    0.6500    0.0000 C   0  0  0  0  0  0  0  0  0  0  0  0
   -1.9958    0.9958    0.0000 N   0  0  0  0  0  0  0  0  0  0  0  0
   -2.5708   -0.0042    0.0000 C   0  0  0  0  0  0  0  0  0  0  0  0
   -1.9958   -0.3500    0.0000 N   0  0  0  0  0  0  0  0  0  0  0  0
   -1.4208   -0.0042    0.0000 C   0  0  0  0  0  0  0  0  0  0  0  0
   -1.4208    0.6500    0.0000 N   0  0  0  0  0  0  0  0  0  0  0  0
   -3.1500    0.9958    0.0000 C   0  0  0  0  0  0  0  0  0  0  0  0
   -3.1500   -0.3500    0.0000 C   0  0  0  0  0  0  0  0  0  0  0  0
   -0.8458   -0.3292    0.0000 N   0  0  0  0  0  0  0  0  0  0  0  0
   -0.2625    0.0125    0.0000 N   0  0  0  0  0  0  0  0  0  0  0  0
   -3.1500    1.6708    0.0000 C   0  0  0  0  0  0  0  0  0  0  0  0
   -3.7458    0.6500    0.0000 C   0  0  0  0  0  0  0  0  0  0  0  0
   -3.1500   -1.0167    0.0000 C   0  0  0  0  0  0  0  0  0  0  0  0
   -3.7458   -0.0042    0.0000 C   0  0  0  0  0  0  0  0  0  0  0  0
   -3.7458    2.0000    0.0000 C   0  0  0  0  0  0  0  0  0  0  0  0
   -4.3208   -0.3500    0.0000 C   0  0  0  0  0  0  0  0  0  0  0  0
   -3.7333   -1.3542    0.0000 C   0  0  0  0  0  0  0  0  0  0  0  0
   -4.3208    0.9958    0.0000 C   0  0  0  0  0  0  0  0  0  0  0  0
   -4.3208   -1.0292    0.0000 C   0  0  0  0  0  0  0  0  0  0  0  0
   -4.3208    1.6708    0.0000 C   0  0  0  0  0  0  0  0  0  0  0  0
  2  1  2  0  0  0  0
  3  1  1  0  0  0  0
  4  3  2  0  0  0  0
  5  4  1  0  0  0  0
  6  2  1  0  0  0  0
  7  1  1  0  0  0  0
  8  3  1  0  0  0  0
  9  5  1  0  0  0  0
 10  9  1  0  0  0  0
 11  7  2  0  0  0  0
 12  7  1  0  0  0  0
 13  8  1  0  0  0  0
 14  8  2  0  0  0  0
 15 11  1  0  0  0  0
 16 14  1  0  0  0  0
 17 13  2  0  0  0  0
 18 12  2  0  0  0  0
 19 16  2  0  0  0  0
 20 18  1  0  0  0  0
  5  6  2  0  0  0  0
 15 20  2  0  0  0  0
 17 19  1  0  0  0  0
M  END
> <#>
565

> <PLATE>
LAT008

> <ROW>
E

> <COL>
2

> <COORD>
E02

> <LATID>
LAT008E02

> <Supplier>
Chembridge

> <Suplier_CAT#>
5475595

> <Name>
Novel

> <Sec_Name>
138_B07

> <Concentration_(mM)>
2.5

> <IC50_(µM)>
76

> <Yeast_Active?>
-

> <Pubchem_CID>
601464

$$$$
