
  -ISIS-  08130814242D

 21 21  0  0  0  0  0  0  0  0999 V2000
    3.2167   -0.3792    0.0000 C   0  0  0  0  0  0  0  0  0  0  0  0
   -3.3333   -1.6542    0.0000 C   0  0  0  0  0  0  0  0  0  0  0  0
    1.0500    2.1500    0.0000 C   0  0  0  0  0  0  0  0  0  0  0  0
   -3.3333   -0.3792    0.0000 C   0  0  0  0  0  0  0  0  0  0  0  0
   -2.2500   -2.3000    0.0000 C   0  0  0  0  0  0  0  0  0  0  0  0
    2.1500    0.2500    0.0000 N   0  0  0  0  0  0  0  0  0  0  0  0
    2.1500    1.5333    0.0000 N   0  0  0  0  0  0  0  0  0  0  0  0
    3.2167   -1.6542    0.0000 C   0  0  3  0  0  0  0  0  0  0  0  0
   -1.1500   -1.6542    0.0000 C   0  0  0  0  0  0  0  0  0  0  0  0
   -2.2500    0.2500    0.0000 C   0  0  0  0  0  0  0  0  0  0  0  0
   -1.1500   -0.3792    0.0000 C   0  0  0  0  0  0  0  0  0  0  0  0
    4.3167    0.2500    0.0000 O   0  0  0  0  0  0  0  0  0  0  0  0
    1.0500    3.4333    0.0000 O   0  0  0  0  0  0  0  0  0  0  0  0
   -0.0500    0.2500    0.0000 O   0  0  0  0  0  0  0  0  0  0  0  0
   -0.0500    1.5333    0.0000 C   0  0  0  0  0  0  0  0  0  0  0  0
   -4.4333   -2.3167    0.0000 Cl  0  0  0  0  0  0  0  0  0  0  0  0
   -2.2500   -3.5542    0.0000 C   0  0  0  0  0  0  0  0  0  0  0  0
   -4.4333    0.2958    0.0000 C   0  0  0  0  0  0  0  0  0  0  0  0
    3.2167   -2.9167    0.0000 C   0  0  0  0  0  0  0  0  0  0  0  0
    1.9542   -1.6542    0.0000 C   0  0  0  0  0  0  0  0  0  0  0  0
    4.5000   -1.6542    0.0000 C   0  0  0  0  0  0  0  0  0  0  0  0
  2  4  1  0  0  0  0
  3  7  1  0  0  0  0
  4 10  2  0  0  0  0
  5  9  1  0  0  0  0
  6  1  1  0  0  0  0
  7  6  1  0  0  0  0
  8  1  1  0  0  0  0
  9 11  2  0  0  0  0
 10 11  1  0  0  0  0
 11 14  1  0  0  0  0
 12  1  2  0  0  0  0
 13  3  2  0  0  0  0
 14 15  1  0  0  0  0
 15  3  1  0  0  0  0
 16  2  1  0  0  0  0
 17  5  1  0  0  0  0
 18  4  1  0  0  0  0
 19  8  1  0  0  0  0
 20  8  1  0  0  0  0
 21  8  1  0  0  0  0
  5  2  2  0  0  0  0
M  END
> <#>
781

> <PLATE>
LAT010

> <ROW>
E

> <COL>
9

> <COORD>
E09

> <LATID>
LAT010E09

> <Supplier>
Chembridge

> <Suplier_CAT#>
5621400

> <Name>
Novel

> <Sec_Name>
188_H04

> <Concentration_(mM)>
2.5

> <IC50_(µM)>
17

> <Yeast_Active?>
-

> <Pubchem_CID>
1556132

$$$$
