
  -ISIS-  08130814242D

 11 11  0  0  0  0  0  0  0  0999 V2000
    0.6167   -2.7725    0.0000 C   0  0  0  0  0  0  0  0  0  0  0  0
    1.8667   -2.7725    0.0000 C   0  0  0  0  0  0  0  0  0  0  0  0
    2.4917   -1.6900    0.0000 C   0  0  0  0  0  0  0  0  0  0  0  0
    3.7417   -1.6900    0.0000 C   0  0  0  0  0  0  0  0  0  0  0  0
    4.3667   -2.7725    0.0000 C   0  0  0  0  0  0  0  0  0  0  0  0
    3.7417   -3.8550    0.0000 C   0  0  0  0  0  0  0  0  0  0  0  0
    2.4917   -3.8550    0.0000 C   0  0  0  0  0  0  0  0  0  0  0  0
   -0.0083   -3.8550    0.0000 O   0  0  0  0  0  0  0  0  0  0  0  0
   -0.0083   -1.6900    0.0000 O   0  0  0  0  0  0  0  0  0  0  0  0
    5.6167   -2.7725    0.0000 O   0  0  0  0  0  0  0  0  0  0  0  0
    4.3667   -0.6075    0.0000 O   0  0  0  0  0  0  0  0  0  0  0  0
  1  2  1  0  0  0  0
  2  3  1  0  0  0  0
  3  4  2  0  0  0  0
  4  5  1  0  0  0  0
  5  6  2  0  0  0  0
  6  7  1  0  0  0  0
  2  7  2  0  0  0  0
  1  8  2  0  0  0  0
  1  9  1  0  0  0  0
  5 10  1  0  0  0  0
  4 11  1  0  0  0  0
M  END
> <#>
350

> <PLATE>
LAT005

> <ROW>
F

> <COL>
5

> <COORD>
F05

> <LATID>
LAT005F05

> <Supplier>
Sigma

> <Suplier_CAT#>
P5630

> <Name>
3,4-Dihydroxybenzoic Acid

> <Concentration_(mM)>
2.5

> <IC50_(µM)>
inactive

> <Yeast_Active?>
-

> <Pubchem_CID>
72

$$$$
