
  -ISIS-  08130814242D

 20 22  0  0  0  0  0  0  0  0999 V2000
   -0.4708   -0.2167    0.0000 N   0  0  3  0  0  0  0  0  0  0  0  0
   -1.2958    0.2500    0.0000 C   0  0  0  0  0  0  0  0  0  0  0  0
   -0.4708   -1.1667    0.0000 C   0  0  0  0  0  0  0  0  0  0  0  0
   -2.1125   -0.2167    0.0000 C   0  0  0  0  0  0  0  0  0  0  0  0
   -1.2958   -1.6375    0.0000 C   0  0  0  0  0  0  0  0  0  0  0  0
   -2.1125   -1.1667    0.0000 C   0  0  0  0  0  0  0  0  0  0  0  0
    0.3500    0.2500    0.0000 C   0  0  0  0  0  0  0  0  0  0  0  0
   -1.2958    1.2208    0.0000 O   0  0  0  0  0  0  0  0  0  0  0  0
    0.3667   -1.6167    0.0000 O   0  0  0  0  0  0  0  0  0  0  0  0
    0.3667    1.2208    0.0000 C   0  0  0  0  0  0  0  0  0  0  0  0
    1.1667   -0.2500    0.0000 C   0  0  0  0  0  0  0  0  0  0  0  0
    2.0375    1.1708    0.0000 C   0  0  0  0  0  0  0  0  0  0  0  0
    2.0042    0.2208    0.0000 C   0  0  0  0  0  0  0  0  0  0  0  0
    1.1875    1.6958    0.0000 C   0  0  0  0  0  0  0  0  0  0  0  0
   -2.9333    0.2500    0.0000 C   0  0  0  0  0  0  0  0  0  0  0  0
    2.9042    1.6208    0.0000 O   0  0  0  0  0  0  0  0  0  0  0  0
   -2.9333   -1.6375    0.0000 C   0  0  0  0  0  0  0  0  0  0  0  0
    3.7375    1.1000    0.0000 C   0  0  0  0  0  0  0  0  0  0  0  0
   -3.7625   -0.2167    0.0000 C   0  0  0  0  0  0  0  0  0  0  0  0
   -3.7625   -1.1667    0.0000 C   0  0  0  0  0  0  0  0  0  0  0  0
  2  1  1  0  0  0  0
  3  1  1  0  0  0  0
  4  2  1  0  0  0  0
  5  3  1  0  0  0  0
  6  5  1  0  0  0  0
  7  1  1  0  0  0  0
  8  2  2  0  0  0  0
  9  3  2  0  0  0  0
 10  7  2  0  0  0  0
 11  7  1  0  0  0  0
 12 13  1  0  0  0  0
 13 11  2  0  0  0  0
 14 10  1  0  0  0  0
 15  4  2  0  0  0  0
 16 12  1  0  0  0  0
 17  6  2  0  0  0  0
 18 16  1  0  0  0  0
 19 15  1  0  0  0  0
 20 17  1  0  0  0  0
 12 14  2  0  0  0  0
  6  4  1  0  0  0  0
 20 19  2  0  0  0  0
M  END
> <#>
972

> <PLATE>
LAT013

> <ROW>
D

> <COL>
3

> <COORD>
D03

> <LATID>
LAT013D03

> <Supplier>
Chembridge

> <Suplier_CAT#>
5749967

> <Name>
Novel

> <Sec_Name>
237_E06

> <Concentration_(mM)>
2.5

> <IC50_(µM)>
>100

> <Yeast_Active?>
-

> <Pubchem_CID>
749032

$$$$
