
  -ISIS-  08130814242D

 18 19  0  0  0  0  0  0  0  0999 V2000
    0.5450    0.3036    0.0000 N   0  0  3  0  0  0  0  0  0  0  0  0
    0.5540    1.5536    0.0000 C   0  0  0  0  0  0  0  0  0  0  0  0
   -0.5240    2.1864    0.0000 O   0  0  0  0  0  0  0  0  0  0  0  0
    1.6410    2.1708    0.0000 N   0  0  0  0  0  0  0  0  0  0  0  0
    2.7190    1.5380    0.0000 C   0  0  0  0  0  0  0  0  0  0  0  0
    3.8060    2.1552    0.0000 N   0  0  0  0  0  0  0  0  0  0  0  0
    2.7100    0.2880    0.0000 C   0  0  0  0  0  0  0  0  0  0  0  0
    1.6230   -0.3292    0.0000 C   0  0  0  0  0  0  0  0  0  0  0  0
   -0.5421   -0.3136    0.0000 O   0  0  0  0  0  0  0  0  0  0  0  0
   -1.6201    0.3192    0.0000 C   0  0  1  0  0  0  0  0  0  0  0  0
   -2.7656   -0.1810    0.0000 C   0  0  1  0  0  0  0  0  0  0  0  0
   -3.0343   -1.4017    0.0000 O   0  0  0  0  0  0  0  0  0  0  0  0
   -3.5953    0.7540    0.0000 C   0  0  2  0  0  0  0  0  0  0  0  0
   -4.8394    0.6323    0.0000 O   0  0  0  0  0  0  0  0  0  0  0  0
   -2.9625    1.8320    0.0000 C   0  0  2  0  0  0  0  0  0  0  0  0
   -1.7418    1.5633    0.0000 O   0  0  0  0  0  0  0  0  0  0  0  0
   -3.4627    2.9775    0.0000 C   0  0  0  0  0  0  0  0  0  0  0  0
   -4.7049    3.1172    0.0000 O   0  0  0  0  0  0  0  0  0  0  0  0
  1  2  1  0  0  0  0
  2  3  2  0  0  0  0
  2  4  1  0  0  0  0
  4  5  2  0  0  0  0
  5  6  1  0  0  0  0
  5  7  1  0  0  0  0
  7  8  2  0  0  0  0
  1  8  1  0  0  0  0
 10  9  1  1  0  0  0
 10 11  1  0  0  0  0
 11 12  1  1  0  0  0
 11 13  1  0  0  0  0
 13 14  1  6  0  0  0
 13 15  1  0  0  0  0
 15 16  1  0  0  0  0
 15 17  1  1  0  0  0
 17 18  1  0  0  0  0
 10 16  1  0  0  0  0
  1  9  1  0  0  0  0
M  END
> <#>
391

> <PLATE>
LAT005

> <ROW>
G

> <COL>
10

> <COORD>
G10

> <LATID>
LAT005G10

> <Supplier>
Sigma

> <Suplier_CAT#>
C-6645

> <Name>
Cytosine-1-Beta-Arabinofuranoside

> <Concentration_(mM)>
2.5

> <IC50_(µM)>
22

> <Yeast_Active?>
-

> <Pubchem_CID>
114682

$$$$
