
  -ISIS-  08130814242D

 12 13  0  0  0  0  0  0  0  0999 V2000
    4.7083   -1.0769    0.0000 C   0  0  0  0  0  0  0  0  0  0  0  0
    5.3333    0.0056    0.0000 C   0  0  0  0  0  0  0  0  0  0  0  0
    6.5833    0.0056    0.0000 C   0  0  0  0  0  0  0  0  0  0  0  0
    7.2083   -1.0769    0.0000 C   0  0  0  0  0  0  0  0  0  0  0  0
    6.5833   -2.1594    0.0000 C   0  0  0  0  0  0  0  0  0  0  0  0
    5.3333   -2.1594    0.0000 N   0  0  0  0  0  0  0  0  0  0  0  0
    3.4583   -1.0769    0.0000 C   0  0  0  0  0  0  0  0  0  0  0  0
    2.8333   -2.1594    0.0000 C   0  0  0  0  0  0  0  0  0  0  0  0
    1.5833   -2.1594    0.0000 C   0  0  0  0  0  0  0  0  0  0  0  0
    0.9583   -1.0769    0.0000 C   0  0  0  0  0  0  0  0  0  0  0  0
    1.5833    0.0056    0.0000 C   0  0  0  0  0  0  0  0  0  0  0  0
    2.8333    0.0056    0.0000 N   0  0  0  0  0  0  0  0  0  0  0  0
  1  2  1  0  0  0  0
  2  3  2  0  0  0  0
  3  4  1  0  0  0  0
  4  5  2  0  0  0  0
  5  6  1  0  0  0  0
  1  6  2  0  0  0  0
  7  8  1  0  0  0  0
  8  9  2  0  0  0  0
  9 10  1  0  0  0  0
 10 11  2  0  0  0  0
 11 12  1  0  0  0  0
  7 12  2  0  0  0  0
  1  7  1  0  0  0  0
M  END
> <#>
339

> <PLATE>
LAT005

> <ROW>
C

> <COL>
4

> <COORD>
C04

> <LATID>
LAT005C04

> <Supplier>
Sigma

> <Suplier_CAT#>
D-7505

> <Name>
2,2'-Dipyridyl

> <Concentration_(mM)>
2.5

> <IC50_(µM)>
71

> <Yeast_Active?>
-

> <Pubchem_CID>
1474

$$$$
