
  -ISIS-  08130814242D

 21 22  0  0  0  0  0  0  0  0999 V2000
    0.2792   -0.2792    0.0000 C   0  0  0  0  0  0  0  0  0  0  0  0
   -4.0500   -0.9500    0.0000 C   0  0  3  0  0  0  0  0  0  0  0  0
   -0.5208   -0.2792    0.0000 N   0  0  0  0  0  0  0  0  0  0  0  0
    1.0542   -0.2792    0.0000 N   0  0  0  0  0  0  0  0  0  0  0  0
   -3.6625   -0.2792    0.0000 O   0  0  0  0  0  0  0  0  0  0  0  0
    0.2792    0.5208    0.0000 O   0  0  0  0  0  0  0  0  0  0  0  0
   -4.4083   -1.6500    0.0000 F   0  0  0  0  0  0  0  0  0  0  0  0
   -4.8958   -0.9542    0.0000 F   0  0  0  0  0  0  0  0  0  0  0  0
   -3.6500   -1.5792    0.0000 F   0  0  0  0  0  0  0  0  0  0  0  0
   -1.3000   -0.2792    0.0000 C   0  0  0  0  0  0  0  0  0  0  0  0
   -2.8833   -0.2792    0.0000 C   0  0  0  0  0  0  0  0  0  0  0  0
    1.8542   -0.2792    0.0000 C   0  0  0  0  0  0  0  0  0  0  0  0
   -1.7000   -0.9542    0.0000 C   0  0  0  0  0  0  0  0  0  0  0  0
   -1.7000    0.4000    0.0000 C   0  0  0  0  0  0  0  0  0  0  0  0
   -2.4833    0.4000    0.0000 C   0  0  0  0  0  0  0  0  0  0  0  0
   -2.4833   -0.9542    0.0000 C   0  0  0  0  0  0  0  0  0  0  0  0
    2.2542    0.4125    0.0000 C   0  0  0  0  0  0  0  0  0  0  0  0
    2.2292   -0.9500    0.0000 C   0  0  0  0  0  0  0  0  0  0  0  0
    3.0542    0.4000    0.0000 C   0  0  0  0  0  0  0  0  0  0  0  0
    3.1000   -0.9500    0.0000 C   0  0  0  0  0  0  0  0  0  0  0  0
    3.4375   -0.3000    0.0000 C   0  0  0  0  0  0  0  0  0  0  0  0
  2  5  1  0  0  0  0
  3  1  1  0  0  0  0
  4  1  1  0  0  0  0
  5 11  1  0  0  0  0
  6  1  2  0  0  0  0
  7  2  1  0  0  0  0
  8  2  1  0  0  0  0
  9  2  1  0  0  0  0
 10  3  1  0  0  0  0
 11 15  2  0  0  0  0
 12  4  1  0  0  0  0
 13 10  1  0  0  0  0
 14 10  2  0  0  0  0
 15 14  1  0  0  0  0
 16 13  2  0  0  0  0
 17 12  1  0  0  0  0
 18 12  2  0  0  0  0
 19 17  2  0  0  0  0
 20 18  1  0  0  0  0
 21 20  2  0  0  0  0
 11 16  1  0  0  0  0
 19 21  1  0  0  0  0
M  END
> <#>
841

> <PLATE>
LAT011

> <ROW>
A

> <COL>
7

> <COORD>
A07

> <LATID>
LAT011A07

> <Supplier>
Chembridge

> <Suplier_CAT#>
5637090

> <Name>
Novel

> <Sec_Name>
194_D05

> <Concentration_(mM)>
2.5

> <IC50_(µM)>
>100

> <Yeast_Active?>
-

> <Pubchem_CID>
872686

$$$$
