
  -ISIS-  08130814242D

 10 10  0  0  0  0  0  0  0  0999 V2000
    6.0897   -4.5234    0.0000 C   0  0  0  0  0  0  0  0  0  0  0  0
    4.8397   -4.5234    0.0000 C   0  0  0  0  0  0  0  0  0  0  0  0
    4.2147   -5.6059    0.0000 C   0  0  0  0  0  0  0  0  0  0  0  0
    2.9647   -5.6059    0.0000 C   0  0  0  0  0  0  0  0  0  0  0  0
    2.3397   -4.5234    0.0000 C   0  0  0  0  0  0  0  0  0  0  0  0
    2.9647   -3.4409    0.0000 N   0  0  0  0  0  0  0  0  0  0  0  0
    4.2147   -3.4409    0.0000 C   0  0  0  0  0  0  0  0  0  0  0  0
    6.7147   -5.6059    0.0000 O   0  0  0  0  0  0  0  0  0  0  0  0
    6.7147   -3.4409    0.0000 O   0  0  0  0  0  0  0  0  0  0  0  0
    4.8397   -2.3583    0.0000 N   0  0  0  0  0  0  0  0  0  0  0  0
  1  2  1  0  0  0  0
  2  3  1  0  0  0  0
  3  4  2  0  0  0  0
  4  5  1  0  0  0  0
  5  6  2  0  0  0  0
  6  7  1  0  0  0  0
  2  7  2  0  0  0  0
  1  8  2  0  0  0  0
  1  9  1  0  0  0  0
  7 10  1  0  0  0  0
M  END
> <#>
310

> <PLATE>
LAT004

> <ROW>
F

> <COL>
10

> <COORD>
F10

> <LATID>
LAT004F10

> <Supplier>
Aldrich

> <Suplier_CAT#>
A6,830-0

> <Name>
2-Aminonicotinic Acid

> <Concentration_(mM)>
2.5

> <IC50_(µM)>
>100

> <Yeast_Active?>
-

> <Pubchem_CID>
72930

$$$$
