
  -ISIS-  08130814242D

 27 29  0  0  0  0  0  0  0  0999 V2000
    0.1792   -1.7375    0.0000 C   0  0  0  0  0  0  0  0  0  0  0  0
   -0.4625   -1.3667    0.0000 C   0  0  3  0  0  0  0  0  0  0  0  0
    0.8375   -1.3542    0.0000 C   0  0  0  0  0  0  0  0  0  0  0  0
    0.1792   -2.4875    0.0000 C   0  0  0  0  0  0  0  0  0  0  0  0
   -1.1125   -2.4875    0.0000 C   0  0  0  0  0  0  0  0  0  0  0  0
   -0.4625   -0.6167    0.0000 C   0  0  0  0  0  0  0  0  0  0  0  0
   -0.4625   -2.8667    0.0000 N   0  0  0  0  0  0  0  0  0  0  0  0
   -1.1125   -1.7375    0.0000 N   0  0  0  0  0  0  0  0  0  0  0  0
    1.4875   -1.7292    0.0000 O   0  0  0  0  0  0  0  0  0  0  0  0
   -1.7625   -2.8667    0.0000 S   0  0  0  0  0  0  0  0  0  0  0  0
   -1.1000   -0.2375    0.0000 C   0  0  0  0  0  0  0  0  0  0  0  0
    0.1792   -0.2375    0.0000 C   0  0  0  0  0  0  0  0  0  0  0  0
    2.1292   -1.3542    0.0000 C   0  0  3  0  0  0  0  0  0  0  0  0
    0.8292   -0.6000    0.0000 O   0  0  0  0  0  0  0  0  0  0  0  0
   -1.1000    0.5000    0.0000 C   0  0  0  0  0  0  0  0  0  0  0  0
    2.7875   -1.7292    0.0000 C   0  0  3  0  0  0  0  0  0  0  0  0
    0.1792    0.5000    0.0000 C   0  0  0  0  0  0  0  0  0  0  0  0
    0.8375   -2.8792    0.0000 C   0  0  0  0  0  0  0  0  0  0  0  0
   -0.4625    0.8708    0.0000 C   0  0  0  0  0  0  0  0  0  0  0  0
   -1.7625   -0.6167    0.0000 O   0  0  0  0  0  0  0  0  0  0  0  0
    0.8375    0.8708    0.0000 O   0  0  0  0  0  0  0  0  0  0  0  0
    2.2875   -0.6167    0.0000 C   0  0  0  0  0  0  0  0  0  0  0  0
    3.0375   -0.5375    0.0000 C   0  0  0  0  0  0  0  0  0  0  0  0
    3.3375   -1.2292    0.0000 C   0  0  0  0  0  0  0  0  0  0  0  0
    2.8542   -2.4792    0.0000 C   0  0  0  0  0  0  0  0  0  0  0  0
   -2.4000   -0.2500    0.0000 C   0  0  0  0  0  0  0  0  0  0  0  0
    0.8375    1.6333    0.0000 C   0  0  0  0  0  0  0  0  0  0  0  0
  2  1  1  0  0  0  0
  3  1  1  0  0  0  0
  4  1  2  0  0  0  0
  5  7  1  0  0  0  0
  6  2  1  0  0  0  0
  7  4  1  0  0  0  0
  8  2  1  0  0  0  0
  9  3  1  0  0  0  0
 10  5  2  0  0  0  0
 11  6  1  0  0  0  0
 12  6  2  0  0  0  0
 13  9  1  0  0  0  0
 14  3  2  0  0  0  0
 15 11  2  0  0  0  0
 16 13  1  0  0  0  0
 17 12  1  0  0  0  0
 18  4  1  0  0  0  0
 19 17  2  0  0  0  0
 20 11  1  0  0  0  0
 21 17  1  0  0  0  0
 22 13  1  0  0  0  0
 23 22  1  0  0  0  0
 24 16  1  0  0  0  0
 25 16  1  0  0  0  0
 26 20  1  0  0  0  0
 27 21  1  0  0  0  0
  8  5  1  0  0  0  0
 23 24  1  0  0  0  0
 19 15  1  0  0  0  0
M  END
> <#>
576

> <PLATE>
LAT008

> <ROW>
H

> <COL>
3

> <COORD>
H03

> <LATID>
LAT008H03

> <Supplier>
Chembridge

> <Suplier_CAT#>
5478502

> <Name>
Novel

> <Sec_Name>
140_B09

> <Concentration_(mM)>
2.5

> <IC50_(µM)>
28

> <Yeast_Active?>
-

> <Pubchem_CID>
2848337

$$$$
