
  -ISIS-  08130814242D

 33 35  0  0  0  0  0  0  0  0999 V2000
    9.6375   -6.7417    0.0000 Cl  0  0  0  0  0  0  0  0  0  0  0  0
    6.8167   -4.1667    0.0000 C   0  0  2  0  0  0  0  0  0  0  0  0
    5.3917   -4.1667    0.0000 C   0  0  0  0  0  0  0  0  0  0  0  0
    6.8167   -4.9917    0.0000 C   0  0  2  0  0  0  0  0  0  0  0  0
    8.2500   -4.1667    0.0000 C   0  0  0  0  0  0  0  0  0  0  0  0
    6.1042   -3.7542    0.0000 C   0  0  0  0  0  0  0  0  0  0  0  0
    7.5292   -3.7542    0.0000 C   0  0  0  0  0  0  0  0  0  0  0  0
    8.2500   -4.9917    0.0000 C   0  0  0  0  0  0  0  0  0  0  0  0
    4.6792   -3.7542    0.0000 C   0  0  0  0  0  0  0  0  0  0  0  0
    5.3917   -4.9917    0.0000 C   0  0  2  0  0  0  0  0  0  0  0  0
    7.5292   -5.4042    0.0000 C   0  0  1  0  0  0  0  0  0  0  0  0
    3.9625   -4.1667    0.0000 C   0  0  0  0  0  0  0  0  0  0  0  0
    6.1042   -5.4042    0.0000 C   0  0  2  0  0  0  0  0  0  0  0  0
    3.9625   -4.9917    0.0000 C   0  0  0  0  0  0  0  0  0  0  0  0
    4.6792   -5.4042    0.0000 C   0  0  2  0  0  0  0  0  0  0  0  0
    8.9667   -3.7542    0.0000 C   0  0  0  0  0  0  0  0  0  0  0  0
    7.5292   -6.2292    0.0000 N   0  0  3  0  0  0  0  0  0  0  0  0
    7.5292   -2.9292    0.0000 O   0  0  0  0  0  0  0  0  0  0  0  0
    4.6792   -2.9292    0.0000 O   0  0  0  0  0  0  0  0  0  0  0  0
    3.2500   -3.7542    0.0000 C   0  0  0  0  0  0  0  0  0  0  0  0
    6.8167   -3.3375    0.0000 O   0  0  0  0  0  0  0  0  0  0  0  0
    8.9750   -2.9292    0.0000 O   0  0  0  0  0  0  0  0  0  0  0  0
    6.1042   -2.9292    0.0000 O   0  0  0  0  0  0  0  0  0  0  0  0
    8.9667   -5.4125    0.0000 O   0  0  0  0  0  0  0  0  0  0  0  0
    6.1042   -6.2292    0.0000 O   0  0  0  0  0  0  0  0  0  0  0  0
    9.6792   -4.1667    0.0000 N   0  0  0  0  0  0  0  0  0  0  0  0
    3.2500   -5.4042    0.0000 C   0  0  0  0  0  0  0  0  0  0  0  0
    4.6792   -6.2292    0.0000 C   0  0  0  0  0  0  0  0  0  0  0  0
    3.2500   -2.9292    0.0000 O   0  0  0  0  0  0  0  0  0  0  0  0
    2.5292   -4.9917    0.0000 C   0  0  0  0  0  0  0  0  0  0  0  0
    2.5292   -4.1667    0.0000 C   0  0  0  0  0  0  0  0  0  0  0  0
    8.2500   -6.6417    0.0000 C   0  0  0  0  0  0  0  0  0  0  0  0
    6.8167   -6.6417    0.0000 C   0  0  0  0  0  0  0  0  0  0  0  0
  3  6  2  0  0  0  0
  4  2  1  0  0  0  0
  5  7  1  0  0  0  0
  6  2  1  0  0  0  0
  7  2  1  0  0  0  0
  8  5  2  0  0  0  0
  9  3  1  0  0  0  0
 10  3  1  0  0  0  0
 11  4  1  0  0  0  0
 12  9  1  0  0  0  0
  4 13  1  6  0  0  0
 14 15  1  0  0  0  0
 15 10  1  0  0  0  0
 16  5  1  0  0  0  0
 11 17  1  1  0  0  0
 18  7  2  0  0  0  0
 19  9  2  0  0  0  0
 20 12  1  0  0  0  0
  2 21  1  1  0  0  0
 22 16  2  0  0  0  0
 23  6  1  0  0  0  0
 24  8  1  0  0  0  0
 13 25  1  1  0  0  0
 26 16  1  0  0  0  0
 27 14  1  0  0  0  0
 15 28  1  1  0  0  0
 29 20  1  0  0  0  0
 30 27  2  0  0  0  0
 31 20  2  0  0  0  0
 32 17  1  0  0  0  0
 33 17  1  0  0  0  0
 10 13  1  6  0  0  0
 11  8  1  0  0  0  0
 14 12  2  0  0  0  0
 31 30  1  0  0  0  0
M  END
> <#>
54

> <PLATE>
LAT001

> <ROW>
F

> <COL>
8

> <COORD>
F08

> <LATID>
LAT001F08

> <Supplier>
Microsource

> <Suplier_CAT#>
01500266

> <Name>
Doxycycline Hydrochloride

> <Concentration_(mM)>
2.5

> <IC50_(µM)>
8.1

> <Yeast_Active?>
-

> <Pubchem_CID>
5282374

> <Description>
Antibacterial

$$$$
