
  -ISIS-  08130814242D

 27 29  0  0  0  0  0  0  0  0999 V2000
   -0.3708    0.4625    0.0000 S   0  0  3  0  0  0  0  0  0  0  0  0
   -0.7000    1.0458    0.0000 N   0  0  3  0  0  0  0  0  0  0  0  0
   -0.3625    1.6208    0.0000 C   0  0  0  0  0  0  0  0  0  0  0  0
    0.3000    1.6208    0.0000 C   0  0  0  0  0  0  0  0  0  0  0  0
   -0.9458    0.1000    0.0000 O   0  0  0  0  0  0  0  0  0  0  0  0
    0.2000    0.7958    0.0000 O   0  0  0  0  0  0  0  0  0  0  0  0
   -0.0208   -0.0917    0.0000 C   0  0  0  0  0  0  0  0  0  0  0  0
   -1.3500    1.0625    0.0000 C   0  0  0  0  0  0  0  0  0  0  0  0
    0.6375    1.0333    0.0000 N   0  0  0  0  0  0  0  0  0  0  0  0
    0.6375    2.2083    0.0000 O   0  0  0  0  0  0  0  0  0  0  0  0
    1.3000    1.0333    0.0000 C   0  0  0  0  0  0  0  0  0  0  0  0
   -1.7000    0.4958    0.0000 C   0  0  0  0  0  0  0  0  0  0  0  0
   -0.3458   -0.7000    0.0000 C   0  0  0  0  0  0  0  0  0  0  0  0
    0.6667   -0.0875    0.0000 C   0  0  0  0  0  0  0  0  0  0  0  0
    1.6292    0.4500    0.0000 C   0  0  0  0  0  0  0  0  0  0  0  0
    1.6292    1.6125    0.0000 C   0  0  0  0  0  0  0  0  0  0  0  0
   -2.3708    0.4958    0.0000 C   0  0  0  0  0  0  0  0  0  0  0  0
   -1.3958   -0.0917    0.0000 C   0  0  0  0  0  0  0  0  0  0  0  0
    0.0292   -1.2875    0.0000 C   0  0  0  0  0  0  0  0  0  0  0  0
    1.0167   -0.6542    0.0000 C   0  0  0  0  0  0  0  0  0  0  0  0
    2.2875    0.4500    0.0000 C   0  0  0  0  0  0  0  0  0  0  0  0
    2.2875    1.6125    0.0000 C   0  0  0  0  0  0  0  0  0  0  0  0
   -1.7208   -0.6667    0.0000 C   0  0  0  0  0  0  0  0  0  0  0  0
   -2.7208   -0.0667    0.0000 C   0  0  0  0  0  0  0  0  0  0  0  0
    2.6167    1.0333    0.0000 C   0  0  0  0  0  0  0  0  0  0  0  0
    0.7042   -1.2667    0.0000 C   0  0  0  0  0  0  0  0  0  0  0  0
   -2.3958   -0.6667    0.0000 C   0  0  0  0  0  0  0  0  0  0  0  0
  2  1  1  0  0  0  0
  3  2  1  0  0  0  0
  4  3  1  0  0  0  0
  5  1  2  0  0  0  0
  6  1  2  0  0  0  0
  7  1  1  0  0  0  0
  8  2  1  0  0  0  0
  9  4  1  0  0  0  0
 10  4  2  0  0  0  0
 11  9  1  0  0  0  0
 12  8  1  0  0  0  0
 13  7  2  0  0  0  0
 14  7  1  0  0  0  0
 15 11  2  0  0  0  0
 16 11  1  0  0  0  0
 17 12  2  0  0  0  0
 18 12  1  0  0  0  0
 19 13  1  0  0  0  0
 20 14  2  0  0  0  0
 21 15  1  0  0  0  0
 22 16  2  0  0  0  0
 23 18  2  0  0  0  0
 24 17  1  0  0  0  0
 25 22  1  0  0  0  0
 26 20  1  0  0  0  0
 27 23  1  0  0  0  0
 26 19  2  0  0  0  0
 27 24  2  0  0  0  0
 25 21  2  0  0  0  0
M  END
> <#>
765

> <PLATE>
LAT010

> <ROW>
E

> <COL>
7

> <COORD>
E07

> <LATID>
LAT010E07

> <Supplier>
Chembridge

> <Suplier_CAT#>
5609401

> <Name>
Novel

> <Sec_Name>
184_B09

> <Concentration_(mM)>
2.5

> <IC50_(µM)>
70

> <Yeast_Active?>
-

> <Pubchem_CID>
1351312

$$$$
