
  -ISIS-  08130814242D

 33 35  0  0  0  0  0  0  0  0999 V2000
    5.9439   -2.7552    0.0000 C   0  0  0  0  0  0  0  0  0  0  0  0
    6.1931   -1.8984    0.0000 C   0  0  0  0  0  0  0  0  0  0  0  0
    5.5756   -1.2542    0.0000 C   0  0  0  0  0  0  0  0  0  0  0  0
    4.7090   -1.4668    0.0000 C   0  0  0  0  0  0  0  0  0  0  0  0
    4.4598   -2.3236    0.0000 O   0  0  0  0  0  0  0  0  0  0  0  0
    4.0916   -0.8226    0.0000 N   0  0  0  0  0  0  0  0  0  0  0  0
    3.2373   -1.0803    0.0000 C   0  0  0  0  0  0  0  0  0  0  0  0
    3.0333   -1.9490    0.0000 N   0  0  0  0  0  0  0  0  0  0  0  0
    2.1790   -2.2067    0.0000 C   0  0  0  0  0  0  0  0  0  0  0  0
    1.5287   -1.5956    0.0000 N   0  0  0  0  0  0  0  0  0  0  0  0
    1.7327   -0.7270    0.0000 C   0  0  0  0  0  0  0  0  0  0  0  0
    2.5870   -0.4693    0.0000 C   0  0  0  0  0  0  0  0  0  0  0  0
    2.6059    0.4229    0.0000 N   0  0  0  0  0  0  0  0  0  0  0  0
    1.7633    0.7165    0.0000 C   0  0  0  0  0  0  0  0  0  0  0  0
    1.2236    0.0059    0.0000 N   0  0  3  0  0  0  0  0  0  0  0  0
    0.3315    0.0248    0.0000 C   0  0  1  0  0  0  0  0  0  0  0  0
   -0.1776    0.7577    0.0000 C   0  0  1  0  0  0  0  0  0  0  0  0
   -1.0319    0.5000    0.0000 C   0  0  1  0  0  0  0  0  0  0  0  0
   -1.0508   -0.3921    0.0000 C   0  0  2  0  0  0  0  0  0  0  0  0
   -0.2082   -0.6858    0.0000 O   0  0  0  0  0  0  0  0  0  0  0  0
   -1.7837   -0.9012    0.0000 C   0  0  0  0  0  0  0  0  0  0  0  0
   -2.5910   -0.5210    0.0000 O   0  0  0  0  0  0  0  0  0  0  0  0
   -3.3238   -1.0301    0.0000 C   0  0  0  0  0  0  0  0  0  0  0  0
   -4.1311   -0.6500    0.0000 O   0  0  0  0  0  0  0  0  0  0  0  0
   -3.2494   -1.9193    0.0000 C   0  0  0  0  0  0  0  0  0  0  0  0
   -3.9823   -2.4284    0.0000 C   0  0  0  0  0  0  0  0  0  0  0  0
   -3.9078   -3.3176    0.0000 C   0  0  0  0  0  0  0  0  0  0  0  0
   -1.5410    1.2329    0.0000 O   0  0  0  0  0  0  0  0  0  0  0  0
   -1.0013    1.9435    0.0000 P   0  0  3  0  0  0  0  0  0  0  0  0
   -1.7644    2.4059    0.0000 O   0  0  0  0  0  0  0  0  0  0  0  0
   -0.1587    1.6498    0.0000 O   0  0  0  0  0  0  0  0  0  0  0  0
   -0.6211    2.7508    0.0000 O   0  5  0  0  0  0  0  0  0  0  0  0
   -0.0354    2.7792    0.0000 Na  0  3  0  0  0  0  0  0  0  0  0  0
  1  2  1  0  0  0  0
  2  3  1  0  0  0  0
  3  4  1  0  0  0  0
  4  5  2  0  0  0  0
  4  6  1  0  0  0  0
  6  7  1  0  0  0  0
  7  8  2  0  0  0  0
  8  9  1  0  0  0  0
  9 10  2  0  0  0  0
 10 11  1  0  0  0  0
 11 12  2  0  0  0  0
  7 12  1  0  0  0  0
 12 13  1  0  0  0  0
 13 14  2  0  0  0  0
 14 15  1  0  0  0  0
 11 15  1  0  0  0  0
 16 15  1  6  0  0  0
 16 17  1  0  0  0  0
 17 18  1  0  0  0  0
 18 19  1  0  0  0  0
 19 20  1  0  0  0  0
 16 20  1  0  0  0  0
 19 21  1  6  0  0  0
 21 22  1  0  0  0  0
 22 23  1  0  0  0  0
 23 24  2  0  0  0  0
 23 25  1  0  0  0  0
 25 26  1  0  0  0  0
 26 27  1  0  0  0  0
 18 28  1  1  0  0  0
 28 29  1  0  0  0  0
 29 30  2  0  0  0  0
 29 31  1  0  0  0  0
 17 31  1  1  0  0  0
 29 32  1  0  0  0  0
M  CHG  2  32  -1  33   1
M  END
> <#>
504

> <PLATE>
LAT007

> <ROW>
H

> <COL>
4

> <COORD>
H04

> <LATID>
LAT007H04

> <Supplier>
Sigma

> <Suplier_CAT#>
D-0627

> <Name>
Bucladesine Sodium Salt

> <Concentration_(mM)>
2.5

> <IC50_(µM)>
>100

> <Yeast_Active?>
-

> <Pubchem_CID>
28177

$$$$
