
  -ISIS-  08130814242D

 20 21  0  0  0  0  0  0  0  0999 V2000
   -3.8125   -0.2667    0.0000 C   0  0  0  0  0  0  0  0  0  0  0  0
   -3.8125   -1.5000    0.0000 C   0  0  0  0  0  0  0  0  0  0  0  0
   -1.6500   -0.2667    0.0000 S   0  0  0  0  0  0  0  0  0  0  0  0
   -2.7333    0.3625    0.0000 C   0  0  0  0  0  0  0  0  0  0  0  0
    0.5000   -0.2792    0.0000 C   0  0  0  0  0  0  0  0  0  0  0  0
    1.5792    0.3333    0.0000 C   0  0  0  0  0  0  0  0  0  0  0  0
   -0.5833    0.3500    0.0000 C   0  0  0  0  0  0  0  0  0  0  0  0
   -2.7625   -2.1375    0.0000 O   0  0  0  0  0  0  0  0  0  0  0  0
    0.5000   -1.5167    0.0000 O   0  0  0  0  0  0  0  0  0  0  0  0
    2.6542   -0.3042    0.0000 C   0  0  0  0  0  0  0  0  0  0  0  0
    1.5792    1.5833    0.0000 C   0  0  0  0  0  0  0  0  0  0  0  0
   -4.8625   -2.1667    0.0000 O   0  0  0  0  0  0  0  0  0  0  0  0
    3.7542    1.5708    0.0000 C   0  0  0  0  0  0  0  0  0  0  0  0
    3.7500    0.3208    0.0000 C   0  0  0  0  0  0  0  0  0  0  0  0
    2.6792    2.2125    0.0000 C   0  0  0  0  0  0  0  0  0  0  0  0
    4.8375    2.1708    0.0000 Br  0  0  0  0  0  0  0  0  0  0  0  0
   -4.8958    0.3625    0.0000 C   0  0  0  0  0  0  0  0  0  0  0  0
   -2.7333    1.6125    0.0000 C   0  0  0  0  0  0  0  0  0  0  0  0
   -4.8958    1.6125    0.0000 C   0  0  0  0  0  0  0  0  0  0  0  0
   -3.8125    2.2458    0.0000 C   0  0  0  0  0  0  0  0  0  0  0  0
  2  1  1  0  0  0  0
  3  4  1  0  0  0  0
  4  1  1  0  0  0  0
  5  7  1  0  0  0  0
  6  5  1  0  0  0  0
  7  3  1  0  0  0  0
  8  2  2  0  0  0  0
  9  5  2  0  0  0  0
 10  6  1  0  0  0  0
 11  6  2  0  0  0  0
 12  2  1  0  0  0  0
 13 15  2  0  0  0  0
 14 10  2  0  0  0  0
 15 11  1  0  0  0  0
 16 13  1  0  0  0  0
 17  1  2  0  0  0  0
 18  4  2  0  0  0  0
 19 17  1  0  0  0  0
 20 19  2  0  0  0  0
 18 20  1  0  0  0  0
 14 13  1  0  0  0  0
M  END
> <#>
895

> <PLATE>
LAT012

> <ROW>
G

> <COL>
3

> <COORD>
G03

> <LATID>
LAT012G03

> <Supplier>
Chembridge

> <Suplier_CAT#>
5675045

> <Name>
Novel

> <Sec_Name>
213_D04

> <Concentration_(mM)>
2.5

> <IC50_(µM)>
>100

> <Yeast_Active?>
-

> <Pubchem_CID>
1106095

$$$$
