
  -ISIS-  08130814242D

 20 20  0  0  0  0  0  0  0  0999 V2000
    1.8917   -3.1750    0.0000 N   0  0  0  0  0  0  0  0  0  0  0  0
    1.1792   -3.5875    0.0000 C   0  0  0  0  0  0  0  0  0  0  0  0
    1.8917   -2.3500    0.0000 C   0  0  0  0  0  0  0  0  0  0  0  0
    4.0292   -1.9375    0.0000 C   0  0  0  0  0  0  0  0  0  0  0  0
    2.6042   -1.9417    0.0000 C   0  0  0  0  0  0  0  0  0  0  0  0
    0.4667   -3.1667    0.0000 C   0  0  0  0  0  0  0  0  0  0  0  0
    1.1792   -4.4042    0.0000 C   0  0  0  0  0  0  0  0  0  0  0  0
    3.3167   -2.3500    0.0000 C   0  0  0  0  0  0  0  0  0  0  0  0
    4.7417   -2.3417    0.0000 O   0  5  0  0  0  0  0  0  0  0  0  0
    4.0250   -1.1125    0.0000 O   0  0  0  0  0  0  0  0  0  0  0  0
    0.4667   -2.3417    0.0000 Cl  0  0  0  0  0  0  0  0  0  0  0  0
    1.8917   -4.8167    0.0000 Cl  0  0  0  0  0  0  0  0  0  0  0  0
   -0.2500   -4.4042    0.0000 C   0  0  0  0  0  0  0  0  0  0  0  0
    1.1792   -1.9417    0.0000 C   0  0  0  0  0  0  0  0  0  0  0  0
   -0.2458   -3.5792    0.0000 C   0  0  0  0  0  0  0  0  0  0  0  0
    0.4625   -4.8167    0.0000 C   0  0  0  0  0  0  0  0  0  0  0  0
    2.6042   -1.1167    0.0000 C   0  0  0  0  0  0  0  0  0  0  0  0
    1.8917   -0.7000    0.0000 C   0  0  0  0  0  0  0  0  0  0  0  0
    1.1792   -1.1167    0.0000 C   0  0  0  0  0  0  0  0  0  0  0  0
    5.1500   -1.3375    0.0000 Na  0  3  0  0  0  0  0  0  0  0  0  0
  2  1  1  0  0  0  0
  3  1  1  0  0  0  0
  4  8  1  0  0  0  0
  5  3  2  0  0  0  0
  6  2  2  0  0  0  0
  7  2  1  0  0  0  0
  8  5  1  0  0  0  0
  9  4  1  0  0  0  0
 10  4  2  0  0  0  0
 11  6  1  0  0  0  0
 12  7  1  0  0  0  0
 13 16  1  0  0  0  0
 14  3  1  0  0  0  0
 15  6  1  0  0  0  0
 16  7  2  0  0  0  0
 17  5  1  0  0  0  0
 18 19  1  0  0  0  0
 19 14  2  0  0  0  0
 15 13  2  0  0  0  0
 17 18  2  0  0  0  0
M  CHG  2   9  -1  20   1
M  END
> <#>
51

> <PLATE>
LAT001

> <ROW>
C

> <COL>
8

> <COORD>
C08

> <LATID>
LAT001C08

> <Supplier>
Microsource

> <Suplier_CAT#>
01500237

> <Name>
Diclofenac Sodium

> <Concentration_(mM)>
2.5

> <IC50_(µM)>
26

> <Yeast_Active?>
-

> <Pubchem_CID>
3032

> <Description>
Antiinflammatory

$$$$
