
  -ISIS-  08130814242D

 20 22  0  0  0  0  0  0  0  0999 V2000
   -3.6125    2.3833    0.0000 C   0  0  0  0  0  0  0  0  0  0  0  0
   -3.6500    3.2458    0.0000 C   0  0  0  0  0  0  0  0  0  0  0  0
   -4.4125    2.0833    0.0000 C   0  0  0  0  0  0  0  0  0  0  0  0
   -4.4708    3.4625    0.0000 N   0  0  0  0  0  0  0  0  0  0  0  0
   -2.8958    1.9000    0.0000 C   0  0  0  0  0  0  0  0  0  0  0  0
    0.1875    0.8833    0.0000 S   0  0  0  0  0  0  0  0  0  0  0  0
    1.0292    0.7458    0.0000 C   0  0  0  0  0  0  0  0  0  0  0  0
    0.0500    1.7208    0.0000 C   0  0  0  0  0  0  0  0  0  0  0  0
   -4.9333    2.7708    0.0000 C   0  0  0  0  0  0  0  0  0  0  0  0
   -1.4333    1.8208    0.0000 N   0  0  0  0  0  0  0  0  0  0  0  0
    1.4042    1.4833    0.0000 C   0  0  0  0  0  0  0  0  0  0  0  0
    0.8292    2.1000    0.0000 C   0  0  0  0  0  0  0  0  0  0  0  0
   -0.6500    2.2083    0.0000 C   0  0  0  0  0  0  0  0  0  0  0  0
   -2.1333    2.2833    0.0000 N   0  0  0  0  0  0  0  0  0  0  0  0
   -2.9500    1.0458    0.0000 O   0  0  0  0  0  0  0  0  0  0  0  0
    1.4500   -0.0292    0.0000 Br  0  0  0  0  0  0  0  0  0  0  0  0
   -4.7333    1.3000    0.0000 C   0  0  0  0  0  0  0  0  0  0  0  0
   -5.7708    2.6458    0.0000 C   0  0  0  0  0  0  0  0  0  0  0  0
   -5.5708    1.1833    0.0000 C   0  0  0  0  0  0  0  0  0  0  0  0
   -6.1042    1.8458    0.0000 C   0  0  0  0  0  0  0  0  0  0  0  0
  2  1  2  0  0  0  0
  3  1  1  0  0  0  0
  4  2  1  0  0  0  0
  5  1  1  0  0  0  0
  6  8  1  0  0  0  0
  7  6  1  0  0  0  0
  8 13  1  0  0  0  0
  9  3  2  0  0  0  0
 10 14  1  0  0  0  0
 11 12  1  0  0  0  0
 12  8  2  0  0  0  0
 13 10  2  0  0  0  0
 14  5  1  0  0  0  0
 15  5  2  0  0  0  0
 16  7  1  0  0  0  0
 17  3  1  0  0  0  0
 18  9  1  0  0  0  0
 19 17  2  0  0  0  0
 20 19  1  0  0  0  0
  4  9  1  0  0  0  0
 18 20  2  0  0  0  0
  7 11  2  0  0  0  0
M  END
> <#>
913

> <PLATE>
LAT012

> <ROW>
A

> <COL>
6

> <COORD>
A06

> <LATID>
LAT012A06

> <Supplier>
Chembridge

> <Suplier_CAT#>
5688825

> <Name>
Novel

> <Sec_Name>
220_C06

> <Concentration_(mM)>
2.5

> <IC50_(µM)>
15

> <Yeast_Active?>
-

> <Pubchem_CID>
NULL

$$$$
