
  -ISIS-  08130814242D

 20 21  0  0  0  0  0  0  0  0999 V2000
   -1.5458    1.7000    0.0000 C   0  0  0  0  0  0  0  0  0  0  0  0
   -1.5458    0.8625    0.0000 C   0  0  0  0  0  0  0  0  0  0  0  0
   -0.1000    0.8833    0.0000 C   0  0  0  0  0  0  0  0  0  0  0  0
   -0.8458    0.4625    0.0000 N   0  0  3  0  0  0  0  0  0  0  0  0
   -0.1208    1.7000    0.0000 N   0  0  0  0  0  0  0  0  0  0  0  0
   -0.8458    2.1000    0.0000 C   0  0  3  0  0  0  0  0  0  0  0  0
   -2.2625    2.1208    0.0000 C   0  0  0  0  0  0  0  0  0  0  0  0
    0.6375    0.4833    0.0000 S   0  0  0  0  0  0  0  0  0  0  0  0
   -0.8458    2.9208    0.0000 C   0  0  0  0  0  0  0  0  0  0  0  0
   -3.0000    1.7208    0.0000 O   0  0  0  0  0  0  0  0  0  0  0  0
   -2.2625    0.4625    0.0000 C   0  0  0  0  0  0  0  0  0  0  0  0
   -0.8458   -0.3792    0.0000 C   0  0  0  0  0  0  0  0  0  0  0  0
   -2.2625    2.9625    0.0000 O   0  0  0  0  0  0  0  0  0  0  0  0
   -0.1458    3.3458    0.0000 C   0  0  0  0  0  0  0  0  0  0  0  0
   -1.5625    3.3458    0.0000 C   0  0  0  0  0  0  0  0  0  0  0  0
   -2.9625    3.3625    0.0000 C   0  0  0  0  0  0  0  0  0  0  0  0
   -2.9625    4.2000    0.0000 C   0  0  0  0  0  0  0  0  0  0  0  0
   -1.5833    4.1542    0.0000 C   0  0  0  0  0  0  0  0  0  0  0  0
   -0.1458    4.1542    0.0000 C   0  0  0  0  0  0  0  0  0  0  0  0
   -0.8458    4.5792    0.0000 C   0  0  0  0  0  0  0  0  0  0  0  0
  2  1  2  0  0  0  0
  3  5  1  0  0  0  0
  4  2  1  0  0  0  0
  5  6  1  0  0  0  0
  6  1  1  0  0  0  0
  7  1  1  0  0  0  0
  8  3  2  0  0  0  0
  9  6  1  0  0  0  0
 10  7  2  0  0  0  0
 11  2  1  0  0  0  0
 12  4  1  0  0  0  0
 13  7  1  0  0  0  0
 14  9  1  0  0  0  0
 15  9  2  0  0  0  0
 16 13  1  0  0  0  0
 17 16  1  0  0  0  0
 18 15  1  0  0  0  0
 19 14  2  0  0  0  0
 20 18  2  0  0  0  0
  3  4  1  0  0  0  0
 20 19  1  0  0  0  0
M  END
> <#>
634

> <PLATE>
LAT008

> <ROW>
B

> <COL>
11

> <COORD>
B11

> <LATID>
LAT008B11

> <Supplier>
Chembridge

> <Suplier_CAT#>
5488018

> <Name>
Novel

> <Sec_Name>
149_G04

> <Concentration_(mM)>
2.5

> <IC50_(µM)>
40

> <Yeast_Active?>
-

> <Pubchem_CID>
2784297

$$$$
