
  -ISIS-  08130814242D

 21 24  0  0  0  0  0  0  0  0999 V2000
    6.6375   -6.2625    0.0000 C   0  0  1  0  0  0  0  0  0  0  0  0
    8.7792   -5.0250    0.0000 C   0  0  1  0  0  0  0  0  0  0  0  0
    6.6375   -7.0875    0.0000 C   0  0  0  0  0  0  0  0  0  0  0  0
    7.3500   -5.8500    0.0000 C   0  0  3  0  0  0  0  0  0  0  0  0
    8.7792   -5.8500    0.0000 C   0  0  3  0  0  0  0  0  0  0  0  0
    8.0625   -6.2625    0.0000 C   0  0  3  0  0  0  0  0  0  0  0  0
    5.9250   -5.8500    0.0000 C   0  0  0  0  0  0  0  0  0  0  0  0
    5.9250   -7.5000    0.0000 C   0  0  0  0  0  0  0  0  0  0  0  0
    9.5625   -4.7625    0.0000 C   0  0  0  0  0  0  0  0  0  0  0  0
    8.0625   -4.6125    0.0000 C   0  0  0  0  0  0  0  0  0  0  0  0
    7.3500   -5.0250    0.0000 C   0  0  0  0  0  0  0  0  0  0  0  0
    8.0625   -7.0875    0.0000 C   0  0  0  0  0  0  0  0  0  0  0  0
    9.5625   -6.1000    0.0000 C   0  0  0  0  0  0  0  0  0  0  0  0
    5.2042   -6.2625    0.0000 C   0  0  0  0  0  0  0  0  0  0  0  0
    5.2042   -7.0875    0.0000 C   0  0  0  0  0  0  0  0  0  0  0  0
    7.3500   -7.5000    0.0000 C   0  0  0  0  0  0  0  0  0  0  0  0
   10.0500   -5.4375    0.0000 C   0  0  0  0  0  0  0  0  0  0  0  0
    9.7917   -4.0292    0.0000 O   0  0  0  0  0  0  0  0  0  0  0  0
    4.4875   -7.5125    0.0000 O   0  0  0  0  0  0  0  0  0  0  0  0
    6.6375   -5.4375    0.0000 C   0  0  0  0  0  0  0  0  0  0  0  0
    8.8125   -4.1750    0.0000 C   0  0  0  0  0  0  0  0  0  0  0  0
  2 10  1  0  0  0  0
  3  1  1  0  0  0  0
  4  1  1  0  0  0  0
  5  6  1  0  0  0  0
  6  4  1  0  0  0  0
  7  1  1  0  0  0  0
  8  3  2  0  0  0  0
  9  2  1  0  0  0  0
 10 11  1  0  0  0  0
 11  4  1  0  0  0  0
 12  6  1  0  0  0  0
 13  5  1  0  0  0  0
 14  7  2  0  0  0  0
 15 14  1  0  0  0  0
 16  3  1  0  0  0  0
 17 13  1  0  0  0  0
 18  9  2  0  0  0  0
 19 15  2  0  0  0  0
  1 20  1  1  0  0  0
  2 21  1  1  0  0  0
 16 12  1  0  0  0  0
 15  8  1  0  0  0  0
  5  2  1  0  0  0  0
 17  9  1  0  0  0  0
M  END
> <#>
22

> <PLATE>
LAT001

> <ROW>
F

> <COL>
4

> <COORD>
F04

> <LATID>
LAT001F04

> <Supplier>
Microsource

> <Suplier_CAT#>
01701001

> <Name>
Androsta-1,4-Dien-3,17-Dione

> <Concentration_(mM)>
2.5

> <IC50_(µM)>
100

> <Yeast_Active?>
-

> <Pubchem_CID>
2192

> <Source>
Natural Product; ex mammary neoplasms; cholesterol metabolite

$$$$
