
  -ISIS-  08130814242D

  8  8  0  0  0  0  0  0  0  0999 V2000
    4.4500   -2.4500    0.0000 N   0  0  0  0  0  0  0  0  0  0  0  0
    4.4500   -1.6167    0.0000 C   0  0  0  0  0  0  0  0  0  0  0  0
    3.7292   -2.8625    0.0000 C   0  0  0  0  0  0  0  0  0  0  0  0
    3.7292   -1.2042    0.0000 N   0  0  0  0  0  0  0  0  0  0  0  0
    3.0167   -2.4500    0.0000 C   0  0  0  0  0  0  0  0  0  0  0  0
    5.1625   -1.2042    0.0000 S   0  0  0  0  0  0  0  0  0  0  0  0
    3.0167   -1.6250    0.0000 C   0  0  0  0  0  0  0  0  0  0  0  0
    3.7292   -3.6875    0.0000 O   0  0  0  0  0  0  0  0  0  0  0  0
  2  1  1  0  0  0  0
  3  1  2  0  0  0  0
  4  2  2  0  0  0  0
  5  3  1  0  0  0  0
  6  2  1  0  0  0  0
  7  5  2  0  0  0  0
  8  3  1  0  0  0  0
  7  4  1  0  0  0  0
M  END
> <#>
125

> <PLATE>
LAT002

> <ROW>
E

> <COL>
7

> <COORD>
E07

> <LATID>
LAT002E07

> <Supplier>
Microsource

> <Suplier_CAT#>
01503973

> <Name>
2-Thiouracil

> <Concentration_(mM)>
2.5

> <IC50_(µM)>
2.1

> <Yeast_Active?>
-

> <Pubchem_CID>
1269845

> <Description>
Thyroid Depressant

$$$$
