
  -ISIS-  08130814242D

 17 19  0  0  0  0  0  0  0  0999 V2000
    2.1167   -2.2375    0.0000 N   0  0  3  0  0  0  0  0  0  0  0  0
    2.9792   -1.6042    0.0000 N   0  0  0  0  0  0  0  0  0  0  0  0
    2.3167   -1.6042    0.0000 C   0  0  0  0  0  0  0  0  0  0  0  0
    3.1917   -2.2375    0.0000 C   0  0  0  0  0  0  0  0  0  0  0  0
    2.6542   -2.6167    0.0000 C   0  0  0  0  0  0  0  0  0  0  0  0
    1.4750   -2.3750    0.0000 C   0  0  0  0  0  0  0  0  0  0  0  0
    1.8792   -1.1125    0.0000 C   0  0  0  0  0  0  0  0  0  0  0  0
    3.8167   -2.4375    0.0000 C   0  0  0  0  0  0  0  0  0  0  0  0
    1.0292   -1.8792    0.0000 C   0  0  0  0  0  0  0  0  0  0  0  0
    1.2375   -1.2542    0.0000 C   0  0  0  0  0  0  0  0  0  0  0  0
    4.3125   -2.0000    0.0000 C   0  0  0  0  0  0  0  0  0  0  0  0
    4.9417   -2.2000    0.0000 C   0  0  0  0  0  0  0  0  0  0  0  0
    5.4292   -1.7542    0.0000 Br  0  0  0  0  0  0  0  0  0  0  0  0
    3.9542   -3.0917    0.0000 C   0  0  0  0  0  0  0  0  0  0  0  0
    4.5917   -3.2917    0.0000 C   0  0  0  0  0  0  0  0  0  0  0  0
    0.2917   -2.0375    0.0000 C   0  0  0  0  0  0  0  0  0  0  0  0
    5.0792   -2.8500    0.0000 C   0  0  0  0  0  0  0  0  0  0  0  0
  2  3  2  0  0  0  0
  3  1  1  0  0  0  0
  4  5  2  0  0  0  0
  5  1  1  0  0  0  0
  6  1  1  0  0  0  0
  7  3  1  0  0  0  0
  8  4  1  0  0  0  0
  9  6  2  0  0  0  0
 10  9  1  0  0  0  0
 11  8  2  0  0  0  0
 12 11  1  0  0  0  0
 13 12  1  0  0  0  0
 14  8  1  0  0  0  0
 15 14  2  0  0  0  0
 16  9  1  0  0  0  0
 17 15  1  0  0  0  0
  4  2  1  0  0  0  0
  7 10  2  0  0  0  0
 17 12  2  0  0  0  0
M  END
> <#>
922

> <PLATE>
LAT012

> <ROW>
B

> <COL>
7

> <COORD>
B07

> <LATID>
LAT012B07

> <Supplier>
Chembridge

> <Suplier_CAT#>
5691512

> <Name>
Novel

> <Sec_Name>
223_B03

> <Concentration_(mM)>
2.5

> <IC50_(µM)>
28

> <Yeast_Active?>
+

> <Pubchem_CID>
868219

$$$$
