
  -ISIS-  08130814242D

 26 29  0  0  0  0  0  0  0  0999 V2000
   -0.6333    2.0625    0.0000 C   0  0  0  0  0  0  0  0  0  0  0  0
   -1.1000    2.0458    0.0000 C   0  0  0  0  0  0  0  0  0  0  0  0
   -0.6208    1.2208    0.0000 N   0  0  3  0  0  0  0  0  0  0  0  0
   -0.3833    1.6333    0.0000 C   0  0  3  0  0  0  0  0  0  0  0  0
   -1.3333    1.6458    0.0000 C   0  0  0  0  0  0  0  0  0  0  0  0
   -1.0958    1.2333    0.0000 C   0  0  0  0  0  0  0  0  0  0  0  0
   -0.3958    0.8000    0.0000 C   0  0  0  0  0  0  0  0  0  0  0  0
   -0.5208    2.5000    0.0000 S   0  0  0  0  0  0  0  0  0  0  0  0
   -1.2625    2.4708    0.0000 C   0  0  0  0  0  0  0  0  0  0  0  0
   -0.8958    2.7958    0.0000 S   0  0  0  0  0  0  0  0  0  0  0  0
    0.0875    0.7708    0.0000 C   0  0  0  0  0  0  0  0  0  0  0  0
   -1.3208    0.8125    0.0000 C   0  0  0  0  0  0  0  0  0  0  0  0
    0.3042    0.3500    0.0000 N   0  0  3  0  0  0  0  0  0  0  0  0
   -1.8000    1.6333    0.0000 C   0  0  0  0  0  0  0  0  0  0  0  0
   -1.7208    2.6208    0.0000 S   0  0  0  0  0  0  0  0  0  0  0  0
   -0.6208    0.3833    0.0000 O   0  0  0  0  0  0  0  0  0  0  0  0
    0.8292   -0.5875    0.0000 O   0  0  0  0  0  0  0  0  0  0  0  0
   -0.0708    1.9833    0.0000 C   0  0  0  0  0  0  0  0  0  0  0  0
    0.0792    1.7208    0.0000 C   0  0  0  0  0  0  0  0  0  0  0  0
   -1.7958    0.8000    0.0000 C   0  0  0  0  0  0  0  0  0  0  0  0
   -2.0500    1.2208    0.0000 C   0  0  0  0  0  0  0  0  0  0  0  0
    0.8375    0.3333    0.0000 C   0  0  0  0  0  0  0  0  0  0  0  0
    0.0542   -0.1042    0.0000 C   0  0  0  0  0  0  0  0  0  0  0  0
    1.1042   -0.1375    0.0000 C   0  0  0  0  0  0  0  0  0  0  0  0
    0.3167   -0.5667    0.0000 C   0  0  0  0  0  0  0  0  0  0  0  0
   -2.5458    1.0500    0.0000 C   0  0  0  0  0  0  0  0  0  0  0  0
  2  1  2  0  0  0  0
  3  4  1  0  0  0  0
  4  1  1  0  0  0  0
  5  2  1  0  0  0  0
  6  3  1  0  0  0  0
  7  3  1  0  0  0  0
  8  1  1  0  0  0  0
  9  2  1  0  0  0  0
 10  8  1  0  0  0  0
 11  7  1  0  0  0  0
 12  6  1  0  0  0  0
 13 11  1  0  0  0  0
 14  5  1  0  0  0  0
 15  9  2  0  0  0  0
 16  7  2  0  0  0  0
 17 25  1  0  0  0  0
 18  4  1  0  0  0  0
 19  4  1  0  0  0  0
 20 12  2  0  0  0  0
 21 14  2  0  0  0  0
 22 13  1  0  0  0  0
 23 13  1  0  0  0  0
 24 22  1  0  0  0  0
 25 23  1  0  0  0  0
 26 21  1  0  0  0  0
  9 10  1  0  0  0  0
  6  5  2  0  0  0  0
 20 21  1  0  0  0  0
 17 24  1  0  0  0  0
M  END
> <#>
947

> <PLATE>
LAT012

> <ROW>
C

> <COL>
10

> <COORD>
C10

> <LATID>
LAT012C10

> <Supplier>
Chembridge

> <Suplier_CAT#>
5730651

> <Name>
Novel

> <Sec_Name>
233_B03

> <Concentration_(mM)>
2.5

> <IC50_(µM)>
49

> <Yeast_Active?>
-

> <Pubchem_CID>
1108488

$$$$
