
  -ISIS-  08130814242D

 30 33  0  0  0  0  0  0  0  0999 V2000
    2.6500   -0.9292    0.0000 C   0  0  0  0  0  0  0  0  0  0  0  0
    2.1500   -1.7000    0.0000 C   0  0  0  0  0  0  0  0  0  0  0  0
    4.0167   -1.7500    0.0000 N   0  3  0  0  0  0  0  0  0  0  0  0
    3.5667   -0.9500    0.0000 C   0  0  0  0  0  0  0  0  0  0  0  0
    1.2167   -1.6542    0.0000 N   0  0  3  0  0  0  0  0  0  0  0  0
   -0.6208   -1.6042    0.0000 N   0  0  3  0  0  0  0  0  0  0  0  0
   -1.5833   -1.6042    0.0000 C   0  0  3  0  0  0  0  0  0  0  0  0
    3.5375   -2.5292    0.0000 O   0  5  0  0  0  0  0  0  0  0  0  0
    4.9375   -1.7375    0.0000 O   0  0  0  0  0  0  0  0  0  0  0  0
    2.5792   -2.5292    0.0000 O   0  0  0  0  0  0  0  0  0  0  0  0
    0.7375   -2.4500    0.0000 C   0  0  0  0  0  0  0  0  0  0  0  0
    0.7792   -0.8667    0.0000 C   0  0  0  0  0  0  0  0  0  0  0  0
   -0.1208   -0.8375    0.0000 C   0  0  0  0  0  0  0  0  0  0  0  0
   -0.1958   -2.4292    0.0000 C   0  0  0  0  0  0  0  0  0  0  0  0
   -2.0458   -0.8375    0.0000 C   0  0  0  0  0  0  0  0  0  0  0  0
   -2.0208   -2.4042    0.0000 C   0  0  0  0  0  0  0  0  0  0  0  0
    2.1917   -0.1042    0.0000 C   0  0  0  0  0  0  0  0  0  0  0  0
    4.0375   -0.1667    0.0000 C   0  0  0  0  0  0  0  0  0  0  0  0
   -2.9625   -2.4375    0.0000 C   0  0  0  0  0  0  0  0  0  0  0  0
   -1.5958   -0.0292    0.0000 C   0  0  0  0  0  0  0  0  0  0  0  0
   -2.9833   -0.8500    0.0000 C   0  0  0  0  0  0  0  0  0  0  0  0
   -1.5625   -3.2292    0.0000 C   0  0  0  0  0  0  0  0  0  0  0  0
    2.6875    0.6833    0.0000 C   0  0  0  0  0  0  0  0  0  0  0  0
    3.6000    0.6333    0.0000 C   0  0  0  0  0  0  0  0  0  0  0  0
   -2.0125   -4.0375    0.0000 C   0  0  0  0  0  0  0  0  0  0  0  0
   -2.0708    0.7708    0.0000 C   0  0  0  0  0  0  0  0  0  0  0  0
   -3.4625   -0.0542    0.0000 C   0  0  0  0  0  0  0  0  0  0  0  0
   -3.4000   -3.2542    0.0000 C   0  0  0  0  0  0  0  0  0  0  0  0
   -2.9333   -4.0500    0.0000 C   0  0  0  0  0  0  0  0  0  0  0  0
   -3.0125    0.7625    0.0000 C   0  0  0  0  0  0  0  0  0  0  0  0
  2  1  1  0  0  0  0
  3  4  1  0  0  0  0
  4  1  1  0  0  0  0
  5  2  1  0  0  0  0
  6 13  1  0  0  0  0
  7  6  1  0  0  0  0
  8  3  1  0  0  0  0
  9  3  2  0  0  0  0
 10  2  2  0  0  0  0
 11  5  1  0  0  0  0
 12  5  1  0  0  0  0
 13 12  1  0  0  0  0
 14 11  1  0  0  0  0
 15  7  1  0  0  0  0
 16  7  1  0  0  0  0
 17  1  2  0  0  0  0
 18  4  2  0  0  0  0
 19 16  2  0  0  0  0
 20 15  2  0  0  0  0
 21 15  1  0  0  0  0
 22 16  1  0  0  0  0
 23 17  1  0  0  0  0
 24 23  2  0  0  0  0
 25 22  2  0  0  0  0
 26 20  1  0  0  0  0
 27 21  2  0  0  0  0
 28 19  1  0  0  0  0
 29 25  1  0  0  0  0
 30 27  1  0  0  0  0
 24 18  1  0  0  0  0
  6 14  1  0  0  0  0
 29 28  2  0  0  0  0
 26 30  2  0  0  0  0
M  CHG  2   3   1   8  -1
M  END
> <#>
910

> <PLATE>
LAT012

> <ROW>
F

> <COL>
5

> <COORD>
F05

> <LATID>
LAT012F05

> <Supplier>
Chembridge

> <Suplier_CAT#>
5687660

> <Name>
Novel

> <Sec_Name>
220_B09

> <Concentration_(mM)>
2.5

> <IC50_(µM)>
100

> <Yeast_Active?>
-

> <Pubchem_CID>
1357536

$$$$
