
  -ISIS-  08130814242D

 24 26  0  0  0  0  0  0  0  0999 V2000
    0.2500   -0.5292    0.0000 C   0  0  0  0  0  0  0  0  0  0  0  0
    1.0500   -1.0042    0.0000 C   0  0  0  0  0  0  0  0  0  0  0  0
   -0.5708   -0.0667    0.0000 C   0  0  3  0  0  0  0  0  0  0  0  0
    1.8292   -1.4667    0.0000 C   0  0  3  0  0  0  0  0  0  0  0  0
    1.8292   -2.3875    0.0000 N   0  0  3  0  0  0  0  0  0  0  0  0
   -1.3708    0.4125    0.0000 C   0  0  0  0  0  0  0  0  0  0  0  0
   -1.0333   -0.8667    0.0000 C   0  0  0  0  0  0  0  0  0  0  0  0
   -0.0958    0.7500    0.0000 O   0  0  0  0  0  0  0  0  0  0  0  0
    1.0500   -2.8375    0.0000 C   0  0  0  0  0  0  0  0  0  0  0  0
    2.6042   -2.8542    0.0000 C   0  0  0  0  0  0  0  0  0  0  0  0
    1.9542   -0.5292    0.0000 C   0  0  0  0  0  0  0  0  0  0  0  0
    2.6167   -1.0167    0.0000 C   0  0  0  0  0  0  0  0  0  0  0  0
   -1.9500   -0.8500    0.0000 C   0  0  0  0  0  0  0  0  0  0  0  0
   -0.5708   -1.6667    0.0000 C   0  0  0  0  0  0  0  0  0  0  0  0
   -1.3708    1.3333    0.0000 C   0  0  0  0  0  0  0  0  0  0  0  0
   -2.1500   -0.0500    0.0000 C   0  0  0  0  0  0  0  0  0  0  0  0
    3.4167   -2.4000    0.0000 C   0  0  0  0  0  0  0  0  0  0  0  0
    3.4167   -1.4792    0.0000 C   0  0  0  0  0  0  0  0  0  0  0  0
   -2.4125   -1.6292    0.0000 C   0  0  0  0  0  0  0  0  0  0  0  0
   -1.0333   -2.4500    0.0000 C   0  0  0  0  0  0  0  0  0  0  0  0
   -2.1500    1.7708    0.0000 C   0  0  0  0  0  0  0  0  0  0  0  0
   -2.9333    0.4125    0.0000 C   0  0  0  0  0  0  0  0  0  0  0  0
   -2.9333    1.3333    0.0000 C   0  0  0  0  0  0  0  0  0  0  0  0
   -1.9500   -2.4500    0.0000 C   0  0  0  0  0  0  0  0  0  0  0  0
  2  1  3  0  0  0  0
  3  1  1  0  0  0  0
  4  2  1  0  0  0  0
  5  4  1  0  0  0  0
  6  3  1  0  0  0  0
  7  3  1  0  0  0  0
  8  3  1  0  0  0  0
  9  5  1  0  0  0  0
 10  5  1  0  0  0  0
 11  4  1  0  0  0  0
 12  4  1  0  0  0  0
 13  7  2  0  0  0  0
 14  7  1  0  0  0  0
 15  6  1  0  0  0  0
 16  6  2  0  0  0  0
 17 18  1  0  0  0  0
 18 12  1  0  0  0  0
 19 13  1  0  0  0  0
 20 14  2  0  0  0  0
 21 15  2  0  0  0  0
 22 16  1  0  0  0  0
 23 22  2  0  0  0  0
 24 20  1  0  0  0  0
 24 19  2  0  0  0  0
 23 21  1  0  0  0  0
 17 10  1  0  0  0  0
M  END
> <#>
1039

> <PLATE>
LAT013

> <ROW>
G

> <COL>
11

> <COORD>
G11

> <LATID>
LAT013G11

> <Supplier>
Chembridge

> <Suplier_CAT#>
6099042

> <Name>
Novel

> <Concentration_(mM)>
2.5

> <IC50_(µM)>
inactive

> <Yeast_Active?>
-

> <Pubchem_CID>
1370559

$$$$
