
  -ISIS-  08130814242D

 11 11  0  0  0  0  0  0  0  0999 V2000
    0.0313    0.1173    0.0000 C   0  0  0  0  0  0  0  0  0  0  0  0
   -0.5938    1.1998    0.0000 C   0  0  0  0  0  0  0  0  0  0  0  0
    0.0313    2.2824    0.0000 C   0  0  0  0  0  0  0  0  0  0  0  0
    1.2813    2.2824    0.0000 C   0  0  0  0  0  0  0  0  0  0  0  0
    1.9063    1.1998    0.0000 C   0  0  0  0  0  0  0  0  0  0  0  0
    1.2813    0.1173    0.0000 C   0  0  0  0  0  0  0  0  0  0  0  0
    1.9063   -0.9652    0.0000 Cl  0  0  0  0  0  0  0  0  0  0  0  0
    3.1562    1.1998    0.0000 O   0  0  0  0  0  0  0  0  0  0  0  0
    1.9063    3.3649    0.0000 Cl  0  0  0  0  0  0  0  0  0  0  0  0
   -1.8438    1.1998    0.0000 C   0  0  0  0  0  0  0  0  0  0  0  0
   -3.0938    1.1998    0.0000 N   0  0  0  0  0  0  0  0  0  0  0  0
  1  2  2  0  0  0  0
  2  3  1  0  0  0  0
  3  4  2  0  0  0  0
  4  5  1  0  0  0  0
  5  6  2  0  0  0  0
  1  6  1  0  0  0  0
  6  7  1  0  0  0  0
  5  8  1  0  0  0  0
  4  9  1  0  0  0  0
  2 10  1  0  0  0  0
 10 11  3  0  0  0  0
M  END
> <#>
540

> <PLATE>
LAT007

> <ROW>
D

> <COL>
9

> <COORD>
d09

> <LATID>
LAT007D09

> <Supplier>
ChemService

> <Suplier_CAT#>
Chloroxynil

> <Name>
Chloroxynil

> <Concentration_(mM)>
2.5

> <IC50_(µM)>
5.6

> <Yeast_Active?>
-

> <Pubchem_CID>
74685

$$$$
