
  -ISIS-  08130814242D

 23 25  0  0  0  0  0  0  0  0999 V2000
    0.4000   -1.8375    0.0000 C   0  0  0  0  0  0  0  0  0  0  0  0
    0.4000   -1.1542    0.0000 N   0  0  0  0  0  0  0  0  0  0  0  0
   -0.2000   -2.1792    0.0000 C   0  0  0  0  0  0  0  0  0  0  0  0
   -0.2000   -0.8167    0.0000 C   0  0  0  0  0  0  0  0  0  0  0  0
    0.9792   -2.1792    0.0000 C   0  0  0  0  0  0  0  0  0  0  0  0
   -0.2000   -2.8542    0.0000 C   0  0  0  0  0  0  0  0  0  0  0  0
   -0.2000   -0.1375    0.0000 C   0  0  0  0  0  0  0  0  0  0  0  0
   -0.7833    0.2000    0.0000 C   0  0  0  0  0  0  0  0  0  0  0  0
   -0.7833   -1.8375    0.0000 N   0  0  0  0  0  0  0  0  0  0  0  0
    0.9792   -2.8542    0.0000 C   0  0  0  0  0  0  0  0  0  0  0  0
    0.4000   -3.2000    0.0000 C   0  0  0  0  0  0  0  0  0  0  0  0
   -0.7833   -1.1542    0.0000 O   0  0  0  0  0  0  0  0  0  0  0  0
   -0.7625    0.8833    0.0000 C   0  0  0  0  0  0  0  0  0  0  0  0
    1.5792   -3.2000    0.0000 O   0  0  0  0  0  0  0  0  0  0  0  0
   -0.7833   -3.2000    0.0000 C   0  0  0  0  0  0  0  0  0  0  0  0
   -1.3625   -2.1792    0.0000 C   0  0  0  0  0  0  0  0  0  0  0  0
   -0.1833    1.2208    0.0000 C   0  0  0  0  0  0  0  0  0  0  0  0
   -1.3458    1.2208    0.0000 C   0  0  0  0  0  0  0  0  0  0  0  0
    2.1792   -2.8542    0.0000 C   0  0  0  0  0  0  0  0  0  0  0  0
   -1.3625   -2.8542    0.0000 C   0  0  0  0  0  0  0  0  0  0  0  0
   -0.1833    1.9000    0.0000 C   0  0  0  0  0  0  0  0  0  0  0  0
   -1.3458    1.9000    0.0000 C   0  0  0  0  0  0  0  0  0  0  0  0
   -0.7625    2.2458    0.0000 C   0  0  0  0  0  0  0  0  0  0  0  0
  2  1  1  0  0  0  0
  3  1  2  0  0  0  0
  4  2  1  0  0  0  0
  5  1  1  0  0  0  0
  6  3  1  0  0  0  0
  7  4  1  0  0  0  0
  8  7  2  0  0  0  0
  9  3  1  0  0  0  0
 10  5  2  0  0  0  0
 11 10  1  0  0  0  0
 12  4  2  0  0  0  0
 13  8  1  0  0  0  0
 14 10  1  0  0  0  0
 15  6  1  0  0  0  0
 16  9  2  0  0  0  0
 17 13  1  0  0  0  0
 18 13  2  0  0  0  0
 19 14  1  0  0  0  0
 20 16  1  0  0  0  0
 21 17  2  0  0  0  0
 22 18  1  0  0  0  0
 23 22  2  0  0  0  0
  6 11  2  0  0  0  0
 15 20  2  0  0  0  0
 21 23  1  0  0  0  0
M  END
> <#>
959

> <PLATE>
LAT012

> <ROW>
G

> <COL>
11

> <COORD>
G11

> <LATID>
LAT012G11

> <Supplier>
Chembridge

> <Suplier_CAT#>
5742541

> <Name>
Novel

> <Sec_Name>
236_D04

> <Concentration_(mM)>
2.5

> <IC50_(µM)>
>100

> <Yeast_Active?>
-

> <Pubchem_CID>
754735

$$$$
