
  -ISIS-  08130814242D

 12 12  0  0  0  0  0  0  0  0999 V2000
   -3.1965    2.0469    0.0000 C   0  0  0  0  0  0  0  0  0  0  0  0
   -3.8303    2.0469    0.0000 C   0  0  0  0  0  0  0  0  0  0  0  0
   -4.1472    1.4980    0.0000 C   0  0  0  0  0  0  0  0  0  0  0  0
   -4.7809    1.4980    0.0000 C   0  0  0  0  0  0  0  0  0  0  0  0
   -5.0978    2.0469    0.0000 C   0  0  0  0  0  0  0  0  0  0  0  0
   -4.7809    2.5957    0.0000 C   0  0  0  0  0  0  0  0  0  0  0  0
   -4.1472    2.5957    0.0000 C   0  0  0  0  0  0  0  0  0  0  0  0
   -2.8797    1.4980    0.0000 O   0  0  0  0  0  0  0  0  0  0  0  0
   -2.8797    2.5957    0.0000 O   0  0  0  0  0  0  0  0  0  0  0  0
   -5.0978    3.1446    0.0000 I   0  0  0  0  0  0  0  0  0  0  0  0
   -5.0978    0.9492    0.0000 I   0  0  0  0  0  0  0  0  0  0  0  0
   -3.8303    0.9492    0.0000 I   0  0  0  0  0  0  0  0  0  0  0  0
  1  2  1  0  0  0  0
  2  3  1  0  0  0  0
  3  4  2  0  0  0  0
  4  5  1  0  0  0  0
  5  6  2  0  0  0  0
  6  7  1  0  0  0  0
  2  7  2  0  0  0  0
  1  8  2  0  0  0  0
  1  9  1  0  0  0  0
  6 10  1  0  0  0  0
  4 11  1  0  0  0  0
  3 12  1  0  0  0  0
M  END
> <#>
456

> <PLATE>
LAT006

> <ROW>
H

> <COL>
8

> <COORD>
H08

> <LATID>
LAT006H08

> <Supplier>
Sigma

> <Suplier_CAT#>
T-5910

> <Name>
2,3,5-Triiodobenzoic Acid

> <Concentration_(mM)>
2.5

> <IC50_(µM)>
52

> <Yeast_Active?>
-

> <Pubchem_CID>
6948

> <Description>
Plant Growth Regulator 

> <Comment>
Auxin Polar Transport Inhibitor

$$$$
