
  -ISIS-  08130814242D

 22 23  0  0  0  0  0  0  0  0999 V2000
   -2.9125    1.9125    0.0000 C   0  0  0  0  0  0  0  0  0  0  0  0
   -3.7958    0.3500    0.0000 C   0  0  0  0  0  0  0  0  0  0  0  0
   -2.4708    1.1333    0.0000 C   0  0  0  0  0  0  0  0  0  0  0  0
   -0.2500    0.3500    0.0000 C   0  0  0  0  0  0  0  0  0  0  0  0
   -2.9125    0.3708    0.0000 C   0  0  0  0  0  0  0  0  0  0  0  0
   -4.2333    1.1333    0.0000 C   0  0  0  0  0  0  0  0  0  0  0  0
   -3.7958    1.9125    0.0000 C   0  0  0  0  0  0  0  0  0  0  0  0
    1.0875   -0.4292    0.0000 N   0  0  0  0  0  0  0  0  0  0  0  0
   -1.5708    1.1333    0.0000 O   0  0  0  0  0  0  0  0  0  0  0  0
    0.2042   -0.4292    0.0000 N   0  0  0  0  0  0  0  0  0  0  0  0
    0.2042    1.1333    0.0000 O   0  0  0  0  0  0  0  0  0  0  0  0
    4.1875   -1.2042    0.0000 N   0  0  0  0  0  0  0  0  0  0  0  0
   -1.1333    0.3708    0.0000 C   0  0  0  0  0  0  0  0  0  0  0  0
    1.5292   -1.1875    0.0000 C   0  0  0  0  0  0  0  0  0  0  0  0
   -5.1333    1.1125    0.0000 Cl  0  0  0  0  0  0  0  0  0  0  0  0
   -2.4500   -0.4292    0.0000 Cl  0  0  0  0  0  0  0  0  0  0  0  0
   -4.2333    2.6958    0.0000 Cl  0  0  0  0  0  0  0  0  0  0  0  0
    2.4292   -1.2042    0.0000 C   0  0  0  0  0  0  0  0  0  0  0  0
    3.7500   -1.9875    0.0000 C   0  0  0  0  0  0  0  0  0  0  0  0
    3.7500   -0.4292    0.0000 C   0  0  0  0  0  0  0  0  0  0  0  0
    2.8667   -1.9667    0.0000 C   0  0  0  0  0  0  0  0  0  0  0  0
    2.8667   -0.4292    0.0000 C   0  0  0  0  0  0  0  0  0  0  0  0
  2  6  1  0  0  0  0
  3  1  2  0  0  0  0
  4 13  1  0  0  0  0
  5  3  1  0  0  0  0
  6  7  2  0  0  0  0
  7  1  1  0  0  0  0
  8 10  1  0  0  0  0
  9  3  1  0  0  0  0
 10  4  1  0  0  0  0
 11  4  2  0  0  0  0
 12 20  2  0  0  0  0
 13  9  1  0  0  0  0
 14  8  2  0  0  0  0
 15  6  1  0  0  0  0
 16  5  1  0  0  0  0
 17  7  1  0  0  0  0
 18 14  1  0  0  0  0
 19 21  2  0  0  0  0
 20 22  1  0  0  0  0
 21 18  1  0  0  0  0
 22 18  2  0  0  0  0
  2  5  2  0  0  0  0
 19 12  1  0  0  0  0
M  END
> <#>
685

> <PLATE>
LAT009

> <ROW>
E

> <COL>
7

> <COORD>
E07

> <LATID>
LAT009E07

> <Supplier>
Chembridge

> <Suplier_CAT#>
5551723

> <Name>
Novel

> <Sec_Name>
165_G04

> <Concentration_(mM)>
2.5

> <IC50_(µM)>
0.59

> <Yeast_Active?>
-

> <Pubchem_CID>
1360645

$$$$
