
  -ISIS-  08130814242D

 18 21  0  0  0  0  0  0  0  0999 V2000
   -0.1500   -0.0917    0.0000 C   0  0  0  0  0  0  0  0  0  0  0  0
   -0.3958    0.3625    0.0000 C   0  0  0  0  0  0  0  0  0  0  0  0
    0.3667   -0.0917    0.0000 N   0  0  0  0  0  0  0  0  0  0  0  0
   -0.1333    0.7833    0.0000 C   0  0  0  0  0  0  0  0  0  0  0  0
    0.6042    0.3458    0.0000 C   0  0  0  0  0  0  0  0  0  0  0  0
    0.3875    0.7833    0.0000 O   0  0  0  0  0  0  0  0  0  0  0  0
   -0.4958   -0.4542    0.0000 S   0  0  0  0  0  0  0  0  0  0  0  0
   -0.8708    0.2625    0.0000 C   0  0  0  0  0  0  0  0  0  0  0  0
   -0.9333   -0.2375    0.0000 C   0  0  0  0  0  0  0  0  0  0  0  0
    1.1042    0.3625    0.0000 C   0  0  0  0  0  0  0  0  0  0  0  0
   -0.3958    1.2458    0.0000 O   0  0  0  0  0  0  0  0  0  0  0  0
    1.4500   -0.0167    0.0000 O   0  0  0  0  0  0  0  0  0  0  0  0
    1.3667    0.8000    0.0000 C   0  0  0  0  0  0  0  0  0  0  0  0
    1.9042    0.2208    0.0000 C   0  0  0  0  0  0  0  0  0  0  0  0
    1.8500    0.7000    0.0000 C   0  0  0  0  0  0  0  0  0  0  0  0
   -1.3500    0.4625    0.0000 C   0  0  0  0  0  0  0  0  0  0  0  0
   -1.4333   -0.3375    0.0000 C   0  0  0  0  0  0  0  0  0  0  0  0
   -1.6708    0.0833    0.0000 C   0  0  0  0  0  0  0  0  0  0  0  0
  2  1  2  0  0  0  0
  3  1  1  0  0  0  0
  4  2  1  0  0  0  0
  5  3  2  0  0  0  0
  6  5  1  0  0  0  0
  7  1  1  0  0  0  0
  8  2  1  0  0  0  0
  9  7  1  0  0  0  0
 10  5  1  0  0  0  0
 11  4  2  0  0  0  0
 12 10  1  0  0  0  0
 13 10  2  0  0  0  0
 14 12  1  0  0  0  0
 15 13  1  0  0  0  0
 16  8  1  0  0  0  0
 17  9  1  0  0  0  0
 18 17  1  0  0  0  0
  8  9  2  0  0  0  0
  4  6  1  0  0  0  0
 18 16  1  0  0  0  0
 15 14  2  0  0  0  0
M  END
> <#>
747

> <PLATE>
LAT010

> <ROW>
C

> <COL>
5

> <COORD>
C05

> <LATID>
LAT010C05

> <Supplier>
Chembridge

> <Suplier_CAT#>
5585847

> <Name>
Novel

> <Sec_Name>
182_G08

> <Concentration_(mM)>
2.5

> <IC50_(µM)>
inactive

> <Yeast_Active?>
-

> <Pubchem_CID>
692948

$$$$
