
  -ISIS-  08130814242D

 26 28  0  0  0  0  0  0  0  0999 V2000
    0.7875   -1.2167    0.0000 N   0  0  3  0  0  0  0  0  0  0  0  0
   -1.0208   -1.2000    0.0000 N   0  0  3  0  0  0  0  0  0  0  0  0
    1.7000   -1.2375    0.0000 C   0  0  0  0  0  0  0  0  0  0  0  0
    2.1500   -0.4542    0.0000 C   0  0  0  0  0  0  0  0  0  0  0  0
   -1.9208   -1.2042    0.0000 C   0  0  0  0  0  0  0  0  0  0  0  0
    1.7000    0.3208    0.0000 C   0  0  0  0  0  0  0  0  0  0  0  0
    0.3292   -0.4292    0.0000 C   0  0  0  0  0  0  0  0  0  0  0  0
    0.3500   -1.9667    0.0000 C   0  0  0  0  0  0  0  0  0  0  0  0
   -0.5625   -0.4167    0.0000 C   0  0  0  0  0  0  0  0  0  0  0  0
   -0.5708   -1.9542    0.0000 C   0  0  0  0  0  0  0  0  0  0  0  0
    2.1500   -2.0167    0.0000 O   0  0  0  0  0  0  0  0  0  0  0  0
   -2.4125   -0.4500    0.0000 C   0  0  0  0  0  0  0  0  0  0  0  0
    2.1542    1.1333    0.0000 C   0  0  0  0  0  0  0  0  0  0  0  0
    3.1000    2.6500    0.0000 C   0  0  0  0  0  0  0  0  0  0  0  0
    3.5875    3.4333    0.0000 F   0  0  0  0  0  0  0  0  0  0  0  0
    1.7167    1.9208    0.0000 C   0  0  0  0  0  0  0  0  0  0  0  0
    3.0500    1.0833    0.0000 C   0  0  0  0  0  0  0  0  0  0  0  0
    2.1875    2.6708    0.0000 C   0  0  0  0  0  0  0  0  0  0  0  0
    3.5292    1.8708    0.0000 C   0  0  0  0  0  0  0  0  0  0  0  0
   -2.0000    0.3458    0.0000 O   0  0  0  0  0  0  0  0  0  0  0  0
   -2.3458   -1.9875    0.0000 C   0  0  0  0  0  0  0  0  0  0  0  0
   -3.3125   -0.4792    0.0000 C   0  0  0  0  0  0  0  0  0  0  0  0
   -1.1000    0.3833    0.0000 C   0  0  0  0  0  0  0  0  0  0  0  0
   -0.6958    1.1625    0.0000 C   0  0  0  0  0  0  0  0  0  0  0  0
   -3.2458   -2.0292    0.0000 C   0  0  0  0  0  0  0  0  0  0  0  0
   -3.7333   -1.2792    0.0000 C   0  0  0  0  0  0  0  0  0  0  0  0
  2 10  1  0  0  0  0
  3  1  1  0  0  0  0
  4  3  1  0  0  0  0
  5  2  1  0  0  0  0
  6  4  2  0  0  0  0
  7  1  1  0  0  0  0
  8  1  1  0  0  0  0
  9  7  1  0  0  0  0
 10  8  1  0  0  0  0
 11  3  2  0  0  0  0
 12  5  2  0  0  0  0
 13  6  1  0  0  0  0
 14 19  1  0  0  0  0
 15 14  1  0  0  0  0
 16 13  2  0  0  0  0
 17 13  1  0  0  0  0
 18 16  1  0  0  0  0
 19 17  2  0  0  0  0
 20 12  1  0  0  0  0
 21  5  1  0  0  0  0
 22 12  1  0  0  0  0
 23 20  1  0  0  0  0
 24 23  1  0  0  0  0
 25 21  2  0  0  0  0
 26 25  1  0  0  0  0
  2  9  1  0  0  0  0
 18 14  2  0  0  0  0
 26 22  2  0  0  0  0
M  END
> <#>
1037

> <PLATE>
LAT013

> <ROW>
E

> <COL>
11

> <COORD>
E11

> <LATID>
LAT013E11

> <Supplier>
Chembridge

> <Suplier_CAT#>
5688572

> <Name>
Novel

> <Sec_Name>
220_E04

> <Concentration_(mM)>
2.5

> <IC50_(µM)>
32

> <Yeast_Active?>
-

> <Pubchem_CID>
1070336

$$$$
