
  -ISIS-  08130814242D

 20 21  0  0  0  0  0  0  0  0999 V2000
   -4.5538    1.3195    0.0000 C   0  0  0  0  0  0  0  0  0  0  0  0
   -4.0050    1.0026    0.0000 C   0  0  3  0  0  0  0  0  0  0  0  0
   -3.4562    0.6857    0.0000 C   0  0  0  0  0  0  0  0  0  0  0  0
   -4.3219    0.4538    0.0000 C   0  0  0  0  0  0  0  0  0  0  0  0
   -3.6881    1.5515    0.0000 C   0  0  3  0  0  0  0  0  0  0  0  0
   -3.0544    1.5515    0.0000 C   0  0  3  0  0  0  0  0  0  0  0  0
   -2.7375    1.0026    0.0000 C   0  0  0  0  0  0  0  0  0  0  0  0
   -2.1038    1.0026    0.0000 C   0  0  0  0  0  0  0  0  0  0  0  0
   -1.7869    0.4538    0.0000 C   0  0  0  0  0  0  0  0  0  0  0  0
   -1.1531    0.4538    0.0000 C   0  0  0  0  0  0  0  0  0  0  0  0
   -0.8363    1.0026    0.0000 C   0  0  0  0  0  0  0  0  0  0  0  0
   -1.1531    1.5515    0.0000 C   0  0  0  0  0  0  0  0  0  0  0  0
   -1.7869    1.5515    0.0000 C   0  0  0  0  0  0  0  0  0  0  0  0
   -0.2025    1.0026    0.0000 Cl  0  0  0  0  0  0  0  0  0  0  0  0
   -2.7375    2.1003    0.0000 N   0  0  3  0  0  0  0  0  0  0  0  0
   -2.9953    2.6793    0.0000 C   0  0  0  0  0  0  0  0  0  0  0  0
   -2.5243    3.1033    0.0000 N   0  0  0  0  0  0  0  0  0  0  0  0
   -1.9755    2.7865    0.0000 C   0  0  0  0  0  0  0  0  0  0  0  0
   -2.1072    2.1666    0.0000 N   0  0  0  0  0  0  0  0  0  0  0  0
   -4.0050    2.1003    0.0000 O   0  0  0  0  0  0  0  0  0  0  0  0
  1  2  1  0  0  0  0
  2  3  1  0  0  0  0
  2  4  1  0  0  0  0
  2  5  1  0  0  0  0
  5  6  1  0  0  0  0
  6  7  1  0  0  0  0
  7  8  1  0  0  0  0
  8  9  2  0  0  0  0
  9 10  1  0  0  0  0
 10 11  2  0  0  0  0
 11 12  1  0  0  0  0
 12 13  2  0  0  0  0
  8 13  1  0  0  0  0
 11 14  1  0  0  0  0
  6 15  1  0  0  0  0
 15 16  1  0  0  0  0
 16 17  2  0  0  0  0
 17 18  1  0  0  0  0
 18 19  2  0  0  0  0
 15 19  1  0  0  0  0
  5 20  1  0  0  0  0
M  END
> <#>
447

> <PLATE>
LAT006

> <ROW>
G

> <COL>
7

> <COORD>
G07

> <LATID>
LAT006G07

> <Supplier>
Zeneca

> <Suplier_CAT#>
Paclobutrazole

> <Name>
Paclobutrazole

> <Concentration_(mM)>
0.25

> <IC50_(µM)>
0.25

> <Yeast_Active?>
+

> <Pubchem_CID>
73671

> <Description>
Plant Growth Regulator

> <Comment>
GA Biosynthesis Inhibitor

$$$$
