
  -ISIS-  08130814242D

 18 19  0  0  0  0  0  0  0  0999 V2000
    5.1245    1.3199    0.0000 O   0  0  0  0  0  0  0  0  0  0  0  0
    3.9171    0.9964    0.0000 C   0  0  0  0  0  0  0  0  0  0  0  0
    3.0332    1.8803    0.0000 C   0  0  0  0  0  0  0  0  0  0  0  0
    1.8258    1.5567    0.0000 C   0  0  0  0  0  0  0  0  0  0  0  0
    1.5023    0.3493    0.0000 C   0  0  0  0  0  0  0  0  0  0  0  0
    0.3135   -0.0370    0.0000 C   0  0  0  0  0  0  0  0  0  0  0  0
   -0.6154    0.7995    0.0000 C   0  0  1  0  0  0  0  0  0  0  0  0
   -1.8381    0.5396    0.0000 C   0  0  1  0  0  0  0  0  0  0  0  0
   -2.6745   -0.3894    0.0000 N   0  0  0  0  0  0  0  0  0  0  0  0
   -3.8165    0.1191    0.0000 C   0  0  0  0  0  0  0  0  0  0  0  0
   -4.8990   -0.5059    0.0000 O   0  0  0  0  0  0  0  0  0  0  0  0
   -1.2131   -0.5430    0.0000 H   0  0  0  0  0  0  0  0  0  0  0  0
   -2.4631    1.6221    0.0000 C   0  0  1  0  0  0  0  0  0  0  0  0
   -3.6858    1.3622    0.0000 N   0  0  0  0  0  0  0  0  0  0  0  0
   -3.0881    2.7046    0.0000 H   0  0  0  0  0  0  0  0  0  0  0  0
   -1.6267    2.5510    0.0000 C   0  0  0  0  0  0  0  0  0  0  0  0
   -0.4848    2.0426    0.0000 S   0  0  0  0  0  0  0  0  0  0  0  0
    3.5936   -0.2110    0.0000 O   0  0  0  0  0  0  0  0  0  0  0  0
  1  2  1  0  0  0  0
  2  3  1  0  0  0  0
  3  4  1  0  0  0  0
  4  5  1  0  0  0  0
  5  6  1  0  0  0  0
  7  6  1  1  0  0  0
  7  8  1  0  0  0  0
  8  9  1  0  0  0  0
  9 10  1  0  0  0  0
 10 11  2  0  0  0  0
  8 12  1  6  0  0  0
  8 13  1  0  0  0  0
 13 14  1  0  0  0  0
 10 14  1  0  0  0  0
 13 15  1  6  0  0  0
 13 16  1  0  0  0  0
 16 17  1  0  0  0  0
  7 17  1  0  0  0  0
  2 18  2  0  0  0  0
M  END
> <#>
386

> <PLATE>
LAT005

> <ROW>
B

> <COL>
10

> <COORD>
B10

> <LATID>
LAT005B10

> <Supplier>
Sigma

> <Suplier_CAT#>
B4501

> <Name>
D-Biotin

> <Concentration_(mM)>
2.5

> <IC50_(µM)>
inactive

> <Yeast_Active?>
-

> <Pubchem_CID>
253

$$$$
