
  -ISIS-  08130814242D

 55 58  0  0  0  0  0  0  0  0999 V2000
    4.6417   -5.9667    0.0000 Na  0  3  0  0  0  0  0  0  0  0  0  0
    5.7542   -2.1792    0.0000 C   0  0  3  0  0  0  0  0  0  0  0  0
    7.1917   -2.2167    0.0000 C   0  0  2  0  0  0  0  0  0  0  0  0
    6.4792   -1.7792    0.0000 O   0  0  0  0  0  0  0  0  0  0  0  0
    5.0542   -2.5250    0.0000 O   0  0  0  0  0  0  0  0  0  0  0  0
    1.4792   -3.6917    0.0000 O   0  0  0  0  0  0  0  0  0  0  0  0
    2.9167   -2.0667    0.0000 C   0  0  0  0  0  0  0  0  0  0  0  0
    4.3500   -2.0917    0.0000 C   0  0  2  0  0  0  0  0  0  0  0  0
    7.9875   -2.4292    0.0000 O   0  0  0  0  0  0  0  0  0  0  0  0
    0.7667   -3.2792    0.0000 C   0  0  1  0  0  0  0  0  0  0  0  0
    3.6292   -2.4917    0.0000 C   0  0  1  0  0  0  0  0  0  0  0  0
    2.2042   -2.4667    0.0000 C   0  0  2  0  0  0  0  0  0  0  0  0
    0.7667   -2.4542    0.0000 C   0  0  2  0  0  0  0  0  0  0  0  0
    8.4292   -1.7375    0.0000 C   0  0  2  0  0  0  0  0  0  0  0  0
    1.4917   -2.0500    0.0000 C   0  0  2  0  0  0  0  0  0  0  0  0
    9.7042   -2.3792    0.0000 O   0  0  0  0  0  0  0  0  0  0  0  0
    1.4792   -4.5167    0.0000 C   0  0  1  0  0  0  0  0  0  0  0  0
    2.1917   -4.9292    0.0000 C   0  0  2  0  0  0  0  0  0  0  0  0
    5.7417   -3.0042    0.0000 C   0  0  0  0  0  0  0  0  0  0  0  0
    2.1917   -5.7542    0.0000 C   0  0  0  0  0  0  0  0  0  0  0  0
    9.2542   -1.6917    0.0000 C   0  0  2  0  0  0  0  0  0  0  0  0
    4.3625   -1.2667    0.0000 C   0  0  2  0  0  0  0  0  0  0  0  0
    5.7917   -1.3042    0.0000 C   0  0  1  0  0  0  0  0  0  0  0  0
    6.4417   -3.4292    0.0000 C   0  0  0  0  0  0  0  0  0  0  0  0
   10.8917   -1.6042    0.0000 C   0  0  1  0  0  0  0  0  0  0  0  0
   10.5167   -2.3417    0.0000 C   0  0  2  0  0  0  0  0  0  0  0  0
    7.1667   -3.0417    0.0000 C   0  0  1  0  0  0  0  0  0  0  0  0
    5.0875   -0.8750    0.0000 C   0  0  0  0  0  0  0  0  0  0  0  0
    7.1417   -1.3917    0.0000 C   0  0  0  0  0  0  0  0  0  0  0  0
    2.9167   -1.2417    0.0000 O   0  0  0  0  0  0  0  0  0  0  0  0
    2.9042   -6.1667    0.0000 O   0  5  0  0  0  0  0  0  0  0  0  0
    7.9167   -1.0917    0.0000 C   0  0  0  0  0  0  0  0  0  0  0  0
    0.0542   -3.6917    0.0000 C   0  0  2  0  0  0  0  0  0  0  0  0
    1.4792   -6.1667    0.0000 O   0  0  0  0  0  0  0  0  0  0  0  0
    0.7667   -4.9292    0.0000 C   0  0  0  0  0  0  0  0  0  0  0  0
   10.4542   -0.9167    0.0000 C   0  0  0  0  0  0  0  0  0  0  0  0
    9.6250   -0.9542    0.0000 C   0  0  0  0  0  0  0  0  0  0  0  0
    0.0542   -4.5167    0.0000 C   0  0  0  0  0  0  0  0  0  0  0  0
    1.4875   -1.2250    0.0000 O   0  0  0  0  0  0  0  0  0  0  0  0
   11.6125   -2.0167    0.0000 O   0  0  0  0  0  0  0  0  0  0  0  0
    7.8792   -3.4542    0.0000 O   0  0  0  0  0  0  0  0  0  0  0  0
    3.6125   -3.3167    0.0000 C   0  0  0  0  0  0  0  0  0  0  0  0
    2.1875   -3.2917    0.0000 C   0  0  0  0  0  0  0  0  0  0  0  0
    0.0542   -2.0417    0.0000 C   0  0  0  0  0  0  0  0  0  0  0  0
    2.9042   -4.5167    0.0000 C   0  0  0  0  0  0  0  0  0  0  0  0
    8.6417   -2.5292    0.0000 C   0  0  0  0  0  0  0  0  0  0  0  0
   11.3042   -0.8917    0.0000 C   0  0  0  0  0  0  0  0  0  0  0  0
    3.6417   -0.8542    0.0000 C   0  0  0  0  0  0  0  0  0  0  0  0
    6.5042   -0.8875    0.0000 C   0  0  0  0  0  0  0  0  0  0  0  0
   10.9292   -3.0542    0.0000 C   0  0  0  0  0  0  0  0  0  0  0  0
   -0.6583   -3.2792    0.0000 C   0  0  0  0  0  0  0  0  0  0  0  0
    2.8917   -3.7167    0.0000 C   0  0  0  0  0  0  0  0  0  0  0  0
    3.6250   -4.9292    0.0000 C   0  0  0  0  0  0  0  0  0  0  0  0
   12.1292   -0.8917    0.0000 C   0  0  0  0  0  0  0  0  0  0  0  0
    8.8375   -0.9750    0.0000 H   0  0  0  0  0  0  0  0  0  0  0  0
  3  4  1  0  0  0  0
  4  2  1  0  0  0  0
  5  2  1  0  0  0  0
  6 10  1  0  0  0  0
  7 11  1  0  0  0  0
  8  5  1  0  0  0  0
  3  9  1  6  0  0  0
 10 13  1  6  0  0  0
  8 11  1  6  0  0  0
 12  7  1  0  0  0  0
 13 15  1  0  0  0  0
 14  9  1  0  0  0  0
 15 12  1  0  0  0  0
 16 21  1  0  0  0  0
 17  6  1  0  0  0  0
 17 18  1  1  0  0  0
 19  2  1  0  0  0  0
 18 20  1  1  0  0  0
 21 14  1  0  0  0  0
 22 28  1  0  0  0  0
 23  2  1  0  0  0  0
 24 19  2  0  0  0  0
 25 36  1  0  0  0  0
 26 16  1  0  0  0  0
 27 24  1  0  0  0  0
 28 23  1  0  0  0  0
  3 29  1  1  0  0  0
 30  7  2  0  0  0  0
 31 20  1  0  0  0  0
 32 29  1  0  0  0  0
 33 10  1  0  0  0  0
 34 20  2  0  0  0  0
 35 38  1  0  0  0  0
 36 37  1  0  0  0  0
 37 21  1  0  0  0  0
 38 33  1  0  0  0  0
 15 39  1  6  0  0  0
 25 40  1  1  0  0  0
 27 41  1  6  0  0  0
 11 42  1  1  0  0  0
 12 43  1  1  0  0  0
 13 44  1  1  0  0  0
 45 18  1  0  0  0  0
 14 46  1  6  0  0  0
 25 47  1  6  0  0  0
 22 48  1  1  0  0  0
 23 49  1  1  0  0  0
 26 50  1  6  0  0  0
 33 51  1  6  0  0  0
 52 42  1  0  0  0  0
 53 45  1  0  0  0  0
 54 47  1  0  0  0  0
 21 55  1  6  0  0  0
 22  8  1  0  0  0  0
  3 27  1  0  0  0  0
 32 14  1  0  0  0  0
 25 26  1  0  0  0  0
 35 17  1  0  0  0  0
M  CHG  2   1   1  31  -1
M  END
> <#>
74

> <PLATE>
LAT001

> <ROW>
B

> <COL>
11

> <COORD>
B11

> <LATID>
LAT001B11

> <Supplier>
Microsource

> <Suplier_CAT#>
01503602

> <Name>
Salinomycin, Sodium

> <Concentration_(mM)>
2.5

> <IC50_(µM)>
0.53

> <Yeast_Active?>
+

> <Pubchem_CID>
5702245

> <Description>
Antibiotic

> <Source>
Natural Product; ex Streptomyces albus

$$$$
