
  -ISIS-  08130814242D

  8  8  0  0  0  0  0  0  0  0999 V2000
   -1.9140    1.6758    0.0000 N   0  0  0  0  0  0  0  0  0  0  0  0
   -1.9140    0.7835    0.0000 C   0  0  0  0  0  0  0  0  0  0  0  0
   -1.1412    0.3374    0.0000 O   0  0  0  0  0  0  0  0  0  0  0  0
   -2.6868    0.3374    0.0000 N   0  0  0  0  0  0  0  0  0  0  0  0
   -3.4595    0.7835    0.0000 C   0  0  0  0  0  0  0  0  0  0  0  0
   -4.2323    0.3374    0.0000 N   0  0  0  0  0  0  0  0  0  0  0  0
   -3.4595    1.6758    0.0000 C   0  0  0  0  0  0  0  0  0  0  0  0
   -2.6868    2.1220    0.0000 C   0  0  0  0  0  0  0  0  0  0  0  0
  1  2  1  0  0  0  0
  2  3  2  0  0  0  0
  2  4  1  0  0  0  0
  4  5  1  0  0  0  0
  5  6  1  0  0  0  0
  5  7  2  0  0  0  0
  7  8  1  0  0  0  0
  1  8  2  0  0  0  0
M  END
> <#>
510

> <PLATE>
LAT007

> <ROW>
F

> <COL>
5

> <COORD>
F05

> <LATID>
LAT007F05

> <Supplier>
Aldrich

> <Suplier_CAT#>
14,201-8

> <Name>
Cytosine

> <Concentration_(mM)>
2.5

> <IC50_(µM)>
inactive

> <Yeast_Active?>
-

> <Pubchem_CID>
597

$$$$
