
  -ISIS-  08130814242D

 21 22  0  0  0  0  0  0  0  0999 V2000
    0.4042   -0.6042    0.0000 C   0  0  0  0  0  0  0  0  0  0  0  0
   -0.2708   -1.0000    0.0000 C   0  0  3  0  0  0  0  0  0  0  0  0
    1.6875   -0.6042    0.0000 N   0  0  0  0  0  0  0  0  0  0  0  0
    1.0500   -1.0000    0.0000 N   0  0  0  0  0  0  0  0  0  0  0  0
    0.4042    0.1458    0.0000 O   0  0  0  0  0  0  0  0  0  0  0  0
   -0.9333   -0.6042    0.0000 C   0  0  0  0  0  0  0  0  0  0  0  0
    2.3292   -1.0000    0.0000 C   0  0  0  0  0  0  0  0  0  0  0  0
    2.9792   -0.6500    0.0000 C   0  0  0  0  0  0  0  0  0  0  0  0
    4.3042    0.0708    0.0000 C   0  0  0  0  0  0  0  0  0  0  0  0
   -0.2708   -1.7500    0.0000 O   0  0  0  0  0  0  0  0  0  0  0  0
    4.9875    0.4333    0.0000 Cl  0  0  0  0  0  0  0  0  0  0  0  0
    4.2792   -0.6792    0.0000 C   0  0  0  0  0  0  0  0  0  0  0  0
    3.6667    0.4708    0.0000 C   0  0  0  0  0  0  0  0  0  0  0  0
    3.6167   -1.0375    0.0000 C   0  0  0  0  0  0  0  0  0  0  0  0
    3.0000    0.1000    0.0000 C   0  0  0  0  0  0  0  0  0  0  0  0
   -0.9333    0.1458    0.0000 C   0  0  0  0  0  0  0  0  0  0  0  0
   -1.5708   -0.9667    0.0000 C   0  0  0  0  0  0  0  0  0  0  0  0
   -0.9125   -2.1375    0.0000 C   0  0  0  0  0  0  0  0  0  0  0  0
   -1.5708    0.5000    0.0000 C   0  0  0  0  0  0  0  0  0  0  0  0
   -2.2125   -0.6042    0.0000 C   0  0  0  0  0  0  0  0  0  0  0  0
   -2.2125    0.1458    0.0000 C   0  0  0  0  0  0  0  0  0  0  0  0
  2  1  1  0  0  0  0
  3  4  1  0  0  0  0
  4  1  1  0  0  0  0
  5  1  2  0  0  0  0
  6  2  1  0  0  0  0
  7  3  2  0  0  0  0
  8  7  1  0  0  0  0
  9 13  1  0  0  0  0
 10  2  1  0  0  0  0
 11  9  1  0  0  0  0
 12 14  1  0  0  0  0
 13 15  2  0  0  0  0
 14  8  2  0  0  0  0
 15  8  1  0  0  0  0
 16  6  2  0  0  0  0
 17  6  1  0  0  0  0
 18 10  1  0  0  0  0
 19 16  1  0  0  0  0
 20 17  2  0  0  0  0
 21 20  1  0  0  0  0
 21 19  2  0  0  0  0
 12  9  2  0  0  0  0
M  END
> <#>
688

> <PLATE>
LAT009

> <ROW>
H

> <COL>
7

> <COORD>
H07

> <LATID>
LAT009H07

> <Supplier>
Chembridge

> <Suplier_CAT#>
5553313

> <Name>
Novel

> <Sec_Name>
163_G09

> <Concentration_(mM)>
2.5

> <IC50_(µM)>
22

> <Yeast_Active?>
-

> <Pubchem_CID>
871727

$$$$
