
  -ISIS-  08130814242D

 23 25  0  0  0  0  0  0  0  0999 V2000
    4.0592  -17.2034    0.0000 C   0  0  0  0  0  0  0  0  0  0  0  0
    4.0564  -16.2055    0.0000 C   0  0  0  0  0  0  0  0  0  0  0  0
    3.1923  -15.7112    0.0000 C   0  0  0  0  0  0  0  0  0  0  0  0
    2.3303  -16.2133    0.0000 C   0  0  0  0  0  0  0  0  0  0  0  0
    2.3379  -17.2149    0.0000 C   0  0  0  0  0  0  0  0  0  0  0  0
    3.2027  -17.7048    0.0000 C   0  0  0  0  0  0  0  0  0  0  0  0
    9.2500  -16.2083    0.0000 C   0  0  0  0  0  0  0  0  0  0  0  0
    7.5208  -16.2083    0.0000 C   0  0  0  0  0  0  0  0  0  0  0  0
    7.5208  -17.2083    0.0000 C   0  0  0  0  0  0  0  0  0  0  0  0
    8.3875  -15.7083    0.0000 C   0  0  0  0  0  0  0  0  0  0  0  0
    8.3875  -17.7083    0.0000 N   0  0  3  0  0  0  0  0  0  0  0  0
    9.2500  -17.2083    0.0000 C   0  0  0  0  0  0  0  0  0  0  0  0
    6.6500  -17.7083    0.0000 N   0  0  0  0  0  0  0  0  0  0  0  0
    9.8833  -15.8458    0.0000 C   0  0  0  0  0  0  0  0  0  0  0  0
    6.6500  -15.7083    0.0000 C   0  0  0  0  0  0  0  0  0  0  0  0
    5.7875  -17.2083    0.0000 C   0  0  0  0  0  0  0  0  0  0  0  0
    8.3875  -15.0292    0.0000 O   0  0  0  0  0  0  0  0  0  0  0  0
    9.8833  -15.1167    0.0000 O   0  0  0  0  0  0  0  0  0  0  0  0
    5.7875  -16.2083    0.0000 C   0  0  0  0  0  0  0  0  0  0  0  0
   10.5125  -16.2083    0.0000 O   0  0  0  0  0  0  0  0  0  0  0  0
    8.3875  -18.7083    0.0000 C   0  0  0  0  0  0  0  0  0  0  0  0
    7.5208  -19.2083    0.0000 C   0  0  0  0  0  0  0  0  0  0  0  0
    4.9237  -17.7060    0.0000 C   0  0  0  0  0  0  0  0  0  0  0  0
  4  5  1  0  0  0  0
  2  3  1  0  0  0  0
  5  6  2  0  0  0  0
  6  1  1  0  0  0  0
  1  2  2  0  0  0  0
  3  4  2  0  0  0  0
  8 10  1  0  0  0  0
  9 11  1  0  0  0  0
 10  7  1  0  0  0  0
 11 12  1  0  0  0  0
 12  7  2  0  0  0  0
 13  9  1  0  0  0  0
 14  7  1  0  0  0  0
 15  8  1  0  0  0  0
 16 13  2  0  0  0  0
 17 10  2  0  0  0  0
 18 14  2  0  0  0  0
 19 15  2  0  0  0  0
 20 14  1  0  0  0  0
 21 11  1  0  0  0  0
 22 21  1  0  0  0  0
  9  8  2  0  0  0  0
 16 19  1  0  0  0  0
 16 23  1  0  0  0  0
 23  1  1  0  0  0  0
M  END
> <#>
227

> <PLATE>
LAT003

> <ROW>
C

> <COL>
10

> <COORD>
C10

> <LATID>
LAT003C10

> <Supplier>
Sigma

> <Suplier_CAT#>
D-044

> <Name>
Amfonelic Acid

> <Concentration_(mM)>
2.5

> <IC50_(µM)>
24

> <Yeast_Active?>
-

> <Pubchem_CID>
2137

> <Description>
Increases dopamine release during electrical stimulation; appears to mobilize dopamine release from storage compartments

$$$$
