
  -ISIS-  08130814242D

 17 18  0  0  0  0  0  0  0  0999 V2000
    2.6167   -1.8042    0.0000 S   0  0  3  0  0  0  0  0  0  0  0  0
    3.3167   -1.7750    0.0000 N   0  0  0  0  0  0  0  0  0  0  0  0
    3.9292   -1.3292    0.0000 C   0  0  0  0  0  0  0  0  0  0  0  0
    4.6417   -1.5542    0.0000 N   0  0  0  0  0  0  0  0  0  0  0  0
    3.9292   -0.5792    0.0000 C   0  0  0  0  0  0  0  0  0  0  0  0
    5.0792   -0.9417    0.0000 O   0  0  0  0  0  0  0  0  0  0  0  0
    1.8667   -1.8042    0.0000 C   0  0  0  0  0  0  0  0  0  0  0  0
    4.6417   -0.3500    0.0000 C   0  0  0  0  0  0  0  0  0  0  0  0
    2.6125   -2.2750    0.0000 O   0  0  0  0  0  0  0  0  0  0  0  0
    2.6125   -1.1500    0.0000 O   0  0  0  0  0  0  0  0  0  0  0  0
    1.4917   -1.1542    0.0000 C   0  0  0  0  0  0  0  0  0  0  0  0
    1.5000   -2.4625    0.0000 C   0  0  0  0  0  0  0  0  0  0  0  0
    0.3667   -1.8167    0.0000 C   0  0  0  0  0  0  0  0  0  0  0  0
   -0.3833   -1.8167    0.0000 N   0  0  0  0  0  0  0  0  0  0  0  0
    0.7417   -2.4667    0.0000 C   0  0  0  0  0  0  0  0  0  0  0  0
    0.7417   -1.1625    0.0000 C   0  0  0  0  0  0  0  0  0  0  0  0
    4.8792    0.3708    0.0000 C   0  0  0  0  0  0  0  0  0  0  0  0
  2  1  1  0  0  0  0
  3  2  1  0  0  0  0
  4  3  2  0  0  0  0
  5  3  1  0  0  0  0
  6  4  1  0  0  0  0
  7  1  1  0  0  0  0
  8  5  2  0  0  0  0
  9  1  2  0  0  0  0
 10  1  2  0  0  0  0
 11  7  1  0  0  0  0
 12  7  2  0  0  0  0
 13 15  2  0  0  0  0
 14 13  1  0  0  0  0
 15 12  1  0  0  0  0
 16 11  2  0  0  0  0
 17  8  1  0  0  0  0
 16 13  1  0  0  0  0
  6  8  1  0  0  0  0
M  END
> <#>
96

> <PLATE>
LAT002

> <ROW>
H

> <COL>
3

> <COORD>
H03

> <LATID>
LAT002H03

> <Supplier>
Microsource

> <Suplier_CAT#>
01500550

> <Name>
Sulfamethoxazole

> <Concentration_(mM)>
2.5

> <IC50_(µM)>
0.79

> <Yeast_Active?>
-

> <Pubchem_CID>
5329

> <Description>
Antibacterial, Antipneumocystis

$$$$
