
  -ISIS-  08130814242D

 23 24  0  0  0  0  0  0  0  0999 V2000
   -0.1208   -0.3042    0.0000 C   0  0  0  0  0  0  0  0  0  0  0  0
    1.3042    0.5333    0.0000 N   0  0  0  0  0  0  0  0  0  0  0  0
    0.3500    0.5333    0.0000 N   0  0  0  0  0  0  0  0  0  0  0  0
    0.3500   -1.1167    0.0000 O   0  0  0  0  0  0  0  0  0  0  0  0
   -1.0833   -0.3042    0.0000 C   0  0  0  0  0  0  0  0  0  0  0  0
    1.8000   -0.3292    0.0000 C   0  0  0  0  0  0  0  0  0  0  0  0
   -1.5458    0.5125    0.0000 O   0  0  0  0  0  0  0  0  0  0  0  0
   -2.4708    0.5125    0.0000 C   0  0  0  0  0  0  0  0  0  0  0  0
    3.1875    0.4958    0.0000 C   0  0  0  0  0  0  0  0  0  0  0  0
    2.7167   -0.3292    0.0000 C   0  0  0  0  0  0  0  0  0  0  0  0
    4.1167    0.4958    0.0000 C   0  0  0  0  0  0  0  0  0  0  0  0
   -4.3500    0.5125    0.0000 C   0  0  0  0  0  0  0  0  0  0  0  0
   -2.9458    1.3208    0.0000 C   0  0  0  0  0  0  0  0  0  0  0  0
   -2.9500   -0.3000    0.0000 C   0  0  0  0  0  0  0  0  0  0  0  0
   -3.8708    1.3208    0.0000 C   0  0  0  0  0  0  0  0  0  0  0  0
   -3.8833   -0.3000    0.0000 C   0  0  0  0  0  0  0  0  0  0  0  0
    4.5500    1.3208    0.0000 O   0  0  0  0  0  0  0  0  0  0  0  0
    4.1500   -1.1500    0.0000 C   0  0  0  0  0  0  0  0  0  0  0  0
    3.1875   -1.1500    0.0000 C   0  0  0  0  0  0  0  0  0  0  0  0
    4.6167   -0.3292    0.0000 C   0  0  0  0  0  0  0  0  0  0  0  0
   -5.2833    0.5125    0.0000 C   0  0  0  0  0  0  0  0  0  0  0  0
    4.0167    2.0958    0.0000 C   0  0  0  0  0  0  0  0  0  0  0  0
   -5.7458    1.3125    0.0000 C   0  0  0  0  0  0  0  0  0  0  0  0
  2  3  1  0  0  0  0
  3  1  1  0  0  0  0
  4  1  2  0  0  0  0
  5  1  1  0  0  0  0
  6  2  2  0  0  0  0
  7  5  1  0  0  0  0
  8  7  1  0  0  0  0
  9 10  1  0  0  0  0
 10  6  1  0  0  0  0
 11  9  2  0  0  0  0
 12 16  2  0  0  0  0
 13  8  1  0  0  0  0
 14  8  2  0  0  0  0
 15 13  2  0  0  0  0
 16 14  1  0  0  0  0
 17 11  1  0  0  0  0
 18 19  1  0  0  0  0
 19 10  2  0  0  0  0
 20 18  2  0  0  0  0
 21 12  1  0  0  0  0
 22 17  1  0  0  0  0
 23 21  1  0  0  0  0
 15 12  1  0  0  0  0
 20 11  1  0  0  0  0
M  END
> <#>
624

> <PLATE>
LAT008

> <ROW>
H

> <COL>
9

> <COORD>
H09

> <LATID>
LAT008H09

> <Supplier>
Chembridge

> <Suplier_CAT#>
5536412

> <Name>
Novel

> <Sec_Name>
156_E02

> <Concentration_(mM)>
2.5

> <IC50_(µM)>
>100

> <Yeast_Active?>
-

> <Pubchem_CID>
871205

$$$$
