
  -ISIS-  08130814242D

 21 23  0  0  0  0  0  0  0  0999 V2000
   -0.9708   -2.0667    0.0000 S   0  0  3  0  0  0  0  0  0  0  0  0
    0.1042   -2.7167    0.0000 N   0  0  0  0  0  0  0  0  0  0  0  0
    3.3667   -2.1000    0.0000 N   0  0  0  0  0  0  0  0  0  0  0  0
   -2.0708   -1.4500    0.0000 C   0  0  0  0  0  0  0  0  0  0  0  0
    1.2000   -2.1167    0.0000 C   0  0  0  0  0  0  0  0  0  0  0  0
   -1.6208   -3.1375    0.0000 O   0  0  0  0  0  0  0  0  0  0  0  0
   -0.3500   -0.9667    0.0000 O   0  0  0  0  0  0  0  0  0  0  0  0
    1.1875   -0.8875    0.0000 C   0  0  0  0  0  0  0  0  0  0  0  0
    2.2667   -0.2375    0.0000 C   0  0  0  0  0  0  0  0  0  0  0  0
    3.3500   -0.8500    0.0000 C   0  0  0  0  0  0  0  0  0  0  0  0
    2.3042   -2.7375    0.0000 C   0  0  0  0  0  0  0  0  0  0  0  0
   -2.0708   -0.2042    0.0000 C   0  0  0  0  0  0  0  0  0  0  0  0
   -3.1458   -2.0375    0.0000 C   0  0  0  0  0  0  0  0  0  0  0  0
   -4.2333   -0.1875    0.0000 C   0  0  0  0  0  0  0  0  0  0  0  0
   -3.1458    0.4125    0.0000 C   0  0  0  0  0  0  0  0  0  0  0  0
   -4.2333   -1.4500    0.0000 C   0  0  0  0  0  0  0  0  0  0  0  0
   -5.2708    0.4333    0.0000 F   0  0  0  0  0  0  0  0  0  0  0  0
    2.2500    1.0125    0.0000 C   0  0  0  0  0  0  0  0  0  0  0  0
    4.4292   -0.2167    0.0000 C   0  0  0  0  0  0  0  0  0  0  0  0
    3.3292    1.6458    0.0000 C   0  0  0  0  0  0  0  0  0  0  0  0
    4.4042    1.0333    0.0000 C   0  0  0  0  0  0  0  0  0  0  0  0
  2  1  1  0  0  0  0
  3 11  1  0  0  0  0
  4  1  1  0  0  0  0
  5  2  1  0  0  0  0
  6  1  2  0  0  0  0
  7  1  2  0  0  0  0
  8  5  1  0  0  0  0
  9  8  2  0  0  0  0
 10  3  2  0  0  0  0
 11  5  2  0  0  0  0
 12  4  2  0  0  0  0
 13  4  1  0  0  0  0
 14 16  1  0  0  0  0
 15 12  1  0  0  0  0
 16 13  2  0  0  0  0
 17 14  1  0  0  0  0
 18  9  1  0  0  0  0
 19 10  1  0  0  0  0
 20 18  2  0  0  0  0
 21 19  2  0  0  0  0
 14 15  2  0  0  0  0
  9 10  1  0  0  0  0
 20 21  1  0  0  0  0
M  END
> <#>
749

> <PLATE>
LAT010

> <ROW>
E

> <COL>
5

> <COORD>
E05

> <LATID>
LAT010E05

> <Supplier>
Chembridge

> <Suplier_CAT#>
5588280

> <Name>
Novel

> <Sec_Name>
183_G10

> <Concentration_(mM)>
2.5

> <IC50_(µM)>
30

> <Yeast_Active?>
-

> <Pubchem_CID>
739174

$$$$
