
  -ISIS-  08130814242D

 20 22  0  0  0  0  0  0  0  0999 V2000
    3.2417   -1.3750    0.0000 C   0  0  3  0  0  0  0  0  0  0  0  0
    2.5917   -1.0000    0.0000 C   0  0  0  0  0  0  0  0  0  0  0  0
    3.9042   -1.0250    0.0000 C   0  0  0  0  0  0  0  0  0  0  0  0
    3.2292   -2.1250    0.0000 C   0  0  0  0  0  0  0  0  0  0  0  0
    5.2375   -0.3250    0.0000 N   0  0  0  0  0  0  0  0  0  0  0  0
    2.4792   -1.7750    0.0000 O   0  0  0  0  0  0  0  0  0  0  0  0
    5.2042   -1.0750    0.0000 C   0  0  0  0  0  0  0  0  0  0  0  0
    4.6042    0.0750    0.0000 C   0  0  0  0  0  0  0  0  0  0  0  0
    4.5417   -1.4250    0.0000 C   0  0  0  0  0  0  0  0  0  0  0  0
    3.9375   -0.2750    0.0000 C   0  0  0  0  0  0  0  0  0  0  0  0
    2.5917   -0.2417    0.0000 C   0  0  0  0  0  0  0  0  0  0  0  0
    2.5750   -2.4792    0.0000 C   0  0  0  0  0  0  0  0  0  0  0  0
    3.8667   -2.5125    0.0000 C   0  0  0  0  0  0  0  0  0  0  0  0
    1.9417   -1.3750    0.0000 C   0  0  0  0  0  0  0  0  0  0  0  0
    2.5542   -3.2292    0.0000 C   0  0  0  0  0  0  0  0  0  0  0  0
    3.8542   -3.2625    0.0000 C   0  0  0  0  0  0  0  0  0  0  0  0
    1.9417    0.1333    0.0000 C   0  0  0  0  0  0  0  0  0  0  0  0
    1.2917   -1.0000    0.0000 C   0  0  0  0  0  0  0  0  0  0  0  0
    3.2000   -3.6250    0.0000 C   0  0  0  0  0  0  0  0  0  0  0  0
    1.2917   -0.2417    0.0000 C   0  0  0  0  0  0  0  0  0  0  0  0
  2  1  1  0  0  0  0
  3  1  1  0  0  0  0
  4  1  1  0  0  0  0
  5  8  2  0  0  0  0
  6  1  1  0  0  0  0
  7  9  2  0  0  0  0
  8 10  1  0  0  0  0
  9  3  1  0  0  0  0
 10  3  2  0  0  0  0
 11  2  2  0  0  0  0
 12  4  1  0  0  0  0
 13  4  2  0  0  0  0
 14  2  1  0  0  0  0
 15 12  2  0  0  0  0
 16 13  1  0  0  0  0
 17 11  1  0  0  0  0
 18 14  2  0  0  0  0
 19 16  2  0  0  0  0
 20 18  1  0  0  0  0
  7  5  1  0  0  0  0
 15 19  1  0  0  0  0
 17 20  2  0  0  0  0
M  END
> <#>
1041

> <PLATE>
LAT014

> <ROW>
A

> <COL>
2

> <COORD>
A02

> <LATID>
LAT014A02

> <Supplier>
Chembridge

> <Suplier_CAT#>
6780520

> <Name>
Novel

> <Concentration_(mM)>
2.5

> <IC50_(µM)>
67

> <Yeast_Active?>
-

> <Pubchem_CID>
74177

$$$$
