
  -ISIS-  08130814242D

 10 10  0  0  0  0  0  0  0  0999 V2000
    8.2461   -3.2875    0.0000 C   0  0  0  0  0  0  0  0  0  0  0  0
    7.3537   -3.2875    0.0000 C   0  0  0  0  0  0  0  0  0  0  0  0
    6.9076   -4.0603    0.0000 C   0  0  0  0  0  0  0  0  0  0  0  0
    6.0153   -4.0603    0.0000 C   0  0  0  0  0  0  0  0  0  0  0  0
    5.5691   -3.2875    0.0000 C   0  0  0  0  0  0  0  0  0  0  0  0
    6.0153   -2.5147    0.0000 C   0  0  0  0  0  0  0  0  0  0  0  0
    6.9076   -2.5147    0.0000 C   0  0  0  0  0  0  0  0  0  0  0  0
    8.6922   -4.0603    0.0000 O   0  0  0  0  0  0  0  0  0  0  0  0
    8.6922   -2.5147    0.0000 O   0  0  0  0  0  0  0  0  0  0  0  0
    4.6768   -3.2875    0.0000 Cl  0  0  0  0  0  0  0  0  0  0  0  0
  1  2  1  0  0  0  0
  2  3  1  0  0  0  0
  3  4  2  0  0  0  0
  4  5  1  0  0  0  0
  5  6  2  0  0  0  0
  6  7  1  0  0  0  0
  2  7  2  0  0  0  0
  1  8  2  0  0  0  0
  1  9  1  0  0  0  0
  5 10  1  0  0  0  0
M  END
> <#>
489

> <PLATE>
LAT007

> <ROW>
A

> <COL>
3

> <COORD>
A03

> <LATID>
LAT007A03

> <Supplier>
Aldrich

> <Suplier_CAT#>
13,558-5

> <Name>
4-Chlorobenzoic Acid

> <Concentration_(mM)>
2.5

> <IC50_(µM)>
100

> <Yeast_Active?>
-

> <Pubchem_CID>
6318

$$$$
