
  -ISIS-  08130814242D

 28 30  0  0  0  0  0  0  0  0999 V2000
   -2.3708    4.0167    0.0000 C   0  0  0  0  0  0  0  0  0  0  0  0
   -1.2708    2.0708    0.0000 C   0  0  3  0  0  0  0  0  0  0  0  0
   -8.0167    5.9792    0.0000 C   0  0  0  0  0  0  0  0  0  0  0  0
   -4.6583    4.0167    0.0000 N   0  0  0  0  0  0  0  0  0  0  0  0
   -5.7708    5.9792    0.0000 N   0  0  0  0  0  0  0  0  0  0  0  0
   -9.1792    7.9667    0.0000 N   0  0  0  0  0  0  0  0  0  0  0  0
   -1.2458    6.0042    0.0000 O   0  0  0  0  0  0  0  0  0  0  0  0
   -9.1792    4.0167    0.0000 O   0  0  0  0  0  0  0  0  0  0  0  0
  -11.4542    7.9667    0.0000 C   0  0  0  0  0  0  0  0  0  0  0  0
   -0.2000    0.0833    0.0000 C   0  0  0  0  0  0  0  0  0  0  0  0
    0.6500    3.1708    0.0000 C   0  0  0  0  0  0  0  0  0  0  0  0
  -12.5875    9.9417    0.0000 C   0  0  0  0  0  0  0  0  0  0  0  0
   -3.2208    0.9708    0.0000 O   0  0  0  0  0  0  0  0  0  0  0  0
  -14.8375    9.9417    0.0000 C   0  0  0  0  0  0  0  0  0  0  0  0
  -16.0000   11.9375    0.0000 Cl  0  0  0  0  0  0  0  0  0  0  0  0
  -14.8375    5.9792    0.0000 C   0  0  0  0  0  0  0  0  0  0  0  0
  -12.5875    5.9792    0.0000 C   0  0  0  0  0  0  0  0  0  0  0  0
   -1.3625   -1.8292    0.0000 C   0  0  0  0  0  0  0  0  0  0  0  0
    2.5667    2.1000    0.0000 C   0  0  0  0  0  0  0  0  0  0  0  0
    0.6500    5.3542    0.0000 C   0  0  0  0  0  0  0  0  0  0  0  0
    2.0375    0.0000    0.0000 C   0  0  0  0  0  0  0  0  0  0  0  0
  -16.0000    7.9667    0.0000 C   0  0  0  0  0  0  0  0  0  0  0  0
   -0.2958   -3.8167    0.0000 C   0  0  0  0  0  0  0  0  0  0  0  0
    4.4667    3.1708    0.0000 C   0  0  0  0  0  0  0  0  0  0  0  0
    2.5375    6.4500    0.0000 C   0  0  0  0  0  0  0  0  0  0  0  0
    3.1042   -1.9792    0.0000 C   0  0  0  0  0  0  0  0  0  0  0  0
    1.9167   -3.9042    0.0000 C   0  0  0  0  0  0  0  0  0  0  0  0
    4.4667    5.3875    0.0000 C   0  0  0  0  0  0  0  0  0  0  0  0
  2  1  1  0  0  0  0
  3  5  1  0  0  0  0
  4  1  1  0  0  0  0
  5  4  1  0  0  0  0
  6  3  1  0  0  0  0
  7  1  2  0  0  0  0
  8  3  2  0  0  0  0
  9  6  1  0  0  0  0
 10  2  1  0  0  0  0
 11  2  1  0  0  0  0
 12  9  2  0  0  0  0
 13  2  1  0  0  0  0
 14 12  1  0  0  0  0
 15 14  1  0  0  0  0
 16 17  2  0  0  0  0
 17  9  1  0  0  0  0
 18 10  2  0  0  0  0
 19 11  2  0  0  0  0
 20 11  1  0  0  0  0
 21 10  1  0  0  0  0
 22 16  1  0  0  0  0
 23 18  1  0  0  0  0
 24 19  1  0  0  0  0
 25 20  2  0  0  0  0
 26 21  2  0  0  0  0
 27 26  1  0  0  0  0
 28 25  1  0  0  0  0
 24 28  2  0  0  0  0
 27 23  2  0  0  0  0
 14 22  2  0  0  0  0
M  END
> <#>
925

> <PLATE>
LAT012

> <ROW>
E

> <COL>
7

> <COORD>
E07

> <LATID>
LAT012E07

> <Supplier>
Chembridge

> <Suplier_CAT#>
5698026

> <Name>
Novel

> <Sec_Name>
221_G11

> <Concentration_(mM)>
2.5

> <IC50_(µM)>
31

> <Yeast_Active?>
-

> <Pubchem_CID>
1358752

$$$$
