
  -ISIS-  08130814242D

 21 22  0  0  0  0  0  0  0  0999 V2000
    2.6167   -1.5542    0.0000 C   0  0  0  0  0  0  0  0  0  0  0  0
    3.9167   -1.5542    0.0000 N   0  0  0  0  0  0  0  0  0  0  0  0
    3.2667   -1.9375    0.0000 N   0  0  0  0  0  0  0  0  0  0  0  0
    1.3167   -1.5542    0.0000 O   0  0  0  0  0  0  0  0  0  0  0  0
    2.6167   -0.8042    0.0000 O   0  0  0  0  0  0  0  0  0  0  0  0
    0.6667   -1.9375    0.0000 C   0  0  0  0  0  0  0  0  0  0  0  0
    1.9667   -1.9375    0.0000 C   0  0  0  0  0  0  0  0  0  0  0  0
    0.0167   -1.5542    0.0000 C   0  0  0  0  0  0  0  0  0  0  0  0
    4.5667   -1.9375    0.0000 C   0  0  0  0  0  0  0  0  0  0  0  0
    5.2167   -1.5667    0.0000 C   0  0  0  0  0  0  0  0  0  0  0  0
    6.5167   -0.8167    0.0000 C   0  0  0  0  0  0  0  0  0  0  0  0
    7.1667   -0.4375    0.0000 F   0  0  0  0  0  0  0  0  0  0  0  0
    5.8667   -0.4375    0.0000 C   0  0  0  0  0  0  0  0  0  0  0  0
    6.5167   -1.5667    0.0000 C   0  0  0  0  0  0  0  0  0  0  0  0
    5.2167   -0.8167    0.0000 C   0  0  0  0  0  0  0  0  0  0  0  0
    5.8667   -1.9375    0.0000 C   0  0  0  0  0  0  0  0  0  0  0  0
    0.6667   -2.6875    0.0000 C   0  0  0  0  0  0  0  0  0  0  0  0
    0.0167   -0.8042    0.0000 C   0  0  0  0  0  0  0  0  0  0  0  0
   -0.6208   -1.9375    0.0000 C   0  0  0  0  0  0  0  0  0  0  0  0
   -0.6208   -2.6875    0.0000 C   0  0  0  0  0  0  0  0  0  0  0  0
    0.0167   -3.0667    0.0000 C   0  0  0  0  0  0  0  0  0  0  0  0
  2  3  1  0  0  0  0
  3  1  1  0  0  0  0
  4  7  1  0  0  0  0
  5  1  2  0  0  0  0
  6  4  1  0  0  0  0
  7  1  1  0  0  0  0
  8  6  1  0  0  0  0
  9  2  2  0  0  0  0
 10  9  1  0  0  0  0
 11 14  1  0  0  0  0
 12 11  1  0  0  0  0
 13 15  1  0  0  0  0
 14 16  2  0  0  0  0
 15 10  2  0  0  0  0
 16 10  1  0  0  0  0
 17  6  2  0  0  0  0
 18  8  1  0  0  0  0
 19  8  2  0  0  0  0
 20 21  2  0  0  0  0
 21 17  1  0  0  0  0
 20 19  1  0  0  0  0
 13 11  2  0  0  0  0
M  END
> <#>
593

> <PLATE>
LAT008

> <ROW>
A

> <COL>
6

> <COORD>
A06

> <LATID>
LAT008A06

> <Supplier>
Chembridge

> <Suplier_CAT#>
5471295

> <Name>
Novel

> <Sec_Name>
134_E08

> <Concentration_(mM)>
2.5

> <IC50_(µM)>
7

> <Yeast_Active?>
-

> <Pubchem_CID>
867297

$$$$
