
  -ISIS-  08130814242D

 65 67  0  0  0  0  0  0  0  0999 V2000
   -3.9800   -0.5321    0.0000 C   0  0  0  0  0  0  0  0  0  0  0  0
   -3.6550   -0.5321    0.0000 C   0  0  3  0  0  0  0  0  0  0  0  0
   -3.6211   -0.1576    0.0000 C   0  0  0  0  0  0  0  0  0  0  0  0
   -3.5392    0.2039    0.0000 C   0  0  0  0  0  0  0  0  0  0  0  0
   -3.4026    0.5451    0.0000 C   0  0  0  0  0  0  0  0  0  0  0  0
   -3.2148    0.8524    0.0000 C   0  0  0  0  0  0  0  0  0  0  0  0
   -2.9851    1.1196    0.0000 C   0  0  0  0  0  0  0  0  0  0  0  0
   -2.7195    1.3324    0.0000 C   0  0  0  0  0  0  0  0  0  0  0  0
   -2.4241    1.4940    0.0000 C   0  0  0  0  0  0  0  0  0  0  0  0
   -2.1042    1.5884    0.0000 C   0  0  0  0  0  0  0  0  0  0  0  0
   -1.7798    1.6182    0.0000 C   0  0  0  0  0  0  0  0  0  0  0  0
   -1.4554    1.5884    0.0000 C   0  0  0  0  0  0  0  0  0  0  0  0
   -1.1396    1.4940    0.0000 C   0  0  0  0  0  0  0  0  0  0  0  0
   -0.8484    1.3324    0.0000 C   0  0  0  0  0  0  0  0  0  0  0  0
   -0.5828    1.1196    0.0000 C   0  0  0  0  0  0  0  0  0  0  0  0
   -0.3489    0.8524    0.0000 C   0  0  0  0  0  0  0  0  0  0  0  0
   -0.1653    0.5451    0.0000 C   0  0  3  0  0  0  0  0  0  0  0  0
   -0.0245    0.2039    0.0000 C   0  0  0  0  0  0  0  0  0  0  0  0
    0.0573   -0.1576    0.0000 C   0  0  3  0  0  0  0  0  0  0  0  0
   -0.1656   -0.2696    0.0000 C   0  0  3  0  0  0  0  0  0  0  0  0
   -0.2581   -0.5321    0.0000 C   0  0  3  0  0  0  0  0  0  0  0  0
   -0.1637   -0.7882    0.0000 C   0  0  0  0  0  0  0  0  0  0  0  0
    0.0573   -0.9023    0.0000 C   0  0  3  0  0  0  0  0  0  0  0  0
    0.0913   -0.5321    0.0000 O   0  0  0  0  0  0  0  0  0  0  0  0
   -0.0245   -1.2639    0.0000 C   0  0  0  0  0  0  0  0  0  0  0  0
   -0.1653   -1.6051    0.0000 C   0  0  3  0  0  0  0  0  0  0  0  0
   -0.3489   -1.9124    0.0000 C   0  0  0  0  0  0  0  0  0  0  0  0
   -0.5828   -2.1754    0.0000 C   0  0  3  0  0  0  0  0  0  0  0  0
   -0.8484   -2.3882    0.0000 C   0  0  3  0  0  0  0  0  0  0  0  0
   -1.1396   -2.5498    0.0000 C   0  0  0  0  0  0  0  0  0  0  0  0
   -1.4554   -2.6442    0.0000 C   0  0  0  0  0  0  0  0  0  0  0  0
   -1.7798   -2.6781    0.0000 C   0  0  3  0  0  0  0  0  0  0  0  0
   -2.1042   -2.6442    0.0000 C   0  0  0  0  0  0  0  0  0  0  0  0
   -2.4241   -2.5498    0.0000 C   0  0  3  0  0  0  0  0  0  0  0  0
   -2.7195   -2.3882    0.0000 C   0  0  0  0  0  0  0  0  0  0  0  0
   -2.9851   -2.1754    0.0000 C   0  0  0  0  0  0  0  0  0  0  0  0
   -3.1928   -2.4621    0.0000 O   0  0  0  0  0  0  0  0  0  0  0  0
   -3.2148   -1.9124    0.0000 O   0  0  0  0  0  0  0  0  0  0  0  0
   -3.4026   -1.6051    0.0000 C   0  0  3  0  0  0  0  0  0  0  0  0
   -3.5392   -1.2639    0.0000 C   0  0  3  0  0  0  0  0  0  0  0  0
   -3.6211   -0.9023    0.0000 C   0  0  3  0  0  0  0  0  0  0  0  0
   -3.9438   -0.9694    0.0000 O   0  0  0  0  0  0  0  0  0  0  0  0
   -3.8472   -1.3914    0.0000 C   0  0  0  0  0  0  0  0  0  0  0  0
   -3.6852   -1.7926    0.0000 C   0  0  0  0  0  0  0  0  0  0  0  0
   -2.5350   -2.9036    0.0000 O   0  0  0  0  0  0  0  0  0  0  0  0
   -1.7798   -3.0531    0.0000 O   0  0  0  0  0  0  0  0  0  0  0  0
   -0.6859   -2.7166    0.0000 O   0  0  0  0  0  0  0  0  0  0  0  0
   -0.3710   -2.4621    0.0000 O   0  0  0  0  0  0  0  0  0  0  0  0
    0.1172   -1.7926    0.0000 O   0  0  0  0  0  0  0  0  0  0  0  0
    0.3800   -0.9694    0.0000 O   0  0  0  0  0  0  0  0  0  0  0  0
   -0.5831   -0.5321    0.0000 O   0  0  0  0  0  0  0  0  0  0  0  0
   -0.3953   -0.0024    0.0000 C   0  0  0  0  0  0  0  0  0  0  0  0
   -0.3196    0.3574    0.0000 O   0  0  0  0  0  0  0  0  0  0  0  0
   -0.7083   -0.1071    0.0000 O   0  0  0  0  0  0  0  0  0  0  0  0
    0.1172    0.7326    0.0000 O   0  0  0  0  0  0  0  0  0  0  0  0
    0.1172    1.1118    0.0000 C   0  0  3  0  0  0  0  0  0  0  0  0
    0.4039    1.2993    0.0000 C   0  0  3  0  0  0  0  0  0  0  0  0
    0.4039    1.6743    0.0000 C   0  0  3  0  0  0  0  0  0  0  0  0
    0.1172    1.8576    0.0000 C   0  0  3  0  0  0  0  0  0  0  0  0
   -0.1653    1.6743    0.0000 C   0  0  3  0  0  0  0  0  0  0  0  0
   -0.1653    1.2993    0.0000 O   0  0  0  0  0  0  0  0  0  0  0  0
   -0.4437    1.8576    0.0000 C   0  0  0  0  0  0  0  0  0  0  0  0
    0.1172    2.2326    0.0000 O   0  0  0  0  0  0  0  0  0  0  0  0
    0.6865    1.8576    0.0000 N   0  0  0  0  0  0  0  0  0  0  0  0
    0.6865    1.1118    0.0000 O   0  0  0  0  0  0  0  0  0  0  0  0
  1  2  1  0  0  0  0
  2  3  1  0  0  0  0
  3  4  2  0  0  0  0
  4  5  1  0  0  0  0
  5  6  2  0  0  0  0
  6  7  1  0  0  0  0
  7  8  2  0  0  0  0
  8  9  1  0  0  0  0
  9 10  2  0  0  0  0
 10 11  1  0  0  0  0
 11 12  2  0  0  0  0
 12 13  1  0  0  0  0
 13 14  2  0  0  0  0
 14 15  1  0  0  0  0
 15 16  2  0  0  0  0
 16 17  1  0  0  0  0
 17 18  1  0  0  0  0
 18 19  1  0  0  0  0
 19 20  1  0  0  0  0
 20 21  1  0  0  0  0
 21 22  1  0  0  0  0
 22 23  1  0  0  0  0
 23 24  1  0  0  0  0
 19 24  1  0  0  0  0
 23 25  1  0  0  0  0
 25 26  1  0  0  0  0
 26 27  1  0  0  0  0
 27 28  1  0  0  0  0
 28 29  1  0  0  0  0
 29 30  1  0  0  0  0
 30 31  1  0  0  0  0
 31 32  1  0  0  0  0
 32 33  1  0  0  0  0
 33 34  1  0  0  0  0
 34 35  1  0  0  0  0
 35 36  1  0  0  0  0
 36 37  2  0  0  0  0
 36 38  1  0  0  0  0
 38 39  1  0  0  0  0
 39 40  1  0  0  0  0
 40 41  1  0  0  0  0
  2 41  1  0  0  0  0
 41 42  1  0  0  0  0
 40 43  1  0  0  0  0
 39 44  1  0  0  0  0
 34 45  1  0  0  0  0
 32 46  1  0  0  0  0
 29 47  1  0  0  0  0
 28 48  1  0  0  0  0
 26 49  1  0  0  0  0
 23 50  1  0  0  0  0
 21 51  1  0  0  0  0
 20 52  1  0  0  0  0
 52 53  2  0  0  0  0
 52 54  1  0  0  0  0
 17 55  1  0  0  0  0
 55 56  1  0  0  0  0
 56 57  1  0  0  0  0
 57 58  1  0  0  0  0
 58 59  1  0  0  0  0
 59 60  1  0  0  0  0
 60 61  1  0  0  0  0
 56 61  1  0  0  0  0
 60 62  1  0  0  0  0
 59 63  1  0  0  0  0
 58 64  1  0  0  0  0
 57 65  1  0  0  0  0
M  END
> <#>
454

> <PLATE>
LAT006

> <ROW>
F

> <COL>
8

> <COORD>
F08

> <LATID>
LAT006F08

> <Supplier>
Sigma

> <Suplier_CAT#>
A-2411

> <Name>
Amphotercin B

> <Concentration_(mM)>
2.5

> <IC50_(µM)>
>100

> <Yeast_Active?>
+

> <Pubchem_CID>
5280965

$$$$
