
  -ISIS-  08130814242D

 17 19  0  0  0  0  0  0  0  0999 V2000
   -2.1500    3.1125    0.0000 C   0  0  0  0  0  0  0  0  0  0  0  0
   -2.5708    3.7125    0.0000 N   0  0  0  0  0  0  0  0  0  0  0  0
   -2.5708    2.5208    0.0000 N   0  0  3  0  0  0  0  0  0  0  0  0
   -3.2708    2.7333    0.0000 C   0  0  0  0  0  0  0  0  0  0  0  0
   -3.2708    3.4958    0.0000 C   0  0  0  0  0  0  0  0  0  0  0  0
   -1.3958    3.1125    0.0000 C   0  0  0  0  0  0  0  0  0  0  0  0
   -2.3125    1.7958    0.0000 C   0  0  0  0  0  0  0  0  0  0  0  0
   -1.0333    2.4708    0.0000 C   0  0  0  0  0  0  0  0  0  0  0  0
   -3.9125    2.3708    0.0000 C   0  0  0  0  0  0  0  0  0  0  0  0
   -3.9125    3.8583    0.0000 C   0  0  0  0  0  0  0  0  0  0  0  0
   -0.2708    2.4708    0.0000 C   0  0  0  0  0  0  0  0  0  0  0  0
   -1.3958    1.8333    0.0000 C   0  0  0  0  0  0  0  0  0  0  0  0
   -4.5500    2.7333    0.0000 C   0  0  0  0  0  0  0  0  0  0  0  0
   -4.5500    3.4958    0.0000 C   0  0  0  0  0  0  0  0  0  0  0  0
   -1.0333    1.1958    0.0000 C   0  0  0  0  0  0  0  0  0  0  0  0
    0.1042    1.8333    0.0000 C   0  0  0  0  0  0  0  0  0  0  0  0
   -0.2708    1.1958    0.0000 C   0  0  0  0  0  0  0  0  0  0  0  0
  2  1  2  0  0  0  0
  3  1  1  0  0  0  0
  4  3  1  0  0  0  0
  5  2  1  0  0  0  0
  6  1  1  0  0  0  0
  7  3  1  0  0  0  0
  8  6  1  0  0  0  0
  9  4  1  0  0  0  0
 10  5  1  0  0  0  0
 11  8  2  0  0  0  0
 12  8  1  0  0  0  0
 13  9  2  0  0  0  0
 14 10  2  0  0  0  0
 15 12  2  0  0  0  0
 16 11  1  0  0  0  0
 17 15  1  0  0  0  0
  5  4  2  0  0  0  0
 14 13  1  0  0  0  0
 17 16  2  0  0  0  0
M  END
> <#>
812

> <PLATE>
LAT011

> <ROW>
D

> <COL>
3

> <COORD>
D03

> <LATID>
LAT011D03

> <Supplier>
Chembridge

> <Suplier_CAT#>
5660110

> <Name>
Novel

> <Sec_Name>
205_F06

> <Concentration_(mM)>
2.5

> <IC50_(µM)>
>100

> <Yeast_Active?>
-

> <Pubchem_CID>
799594

$$$$
