
  -ISIS-  08130814242D

 32 34  0  0  0  0  0  0  0  0999 V2000
    1.3500   -2.7917    0.0000 N   0  0  0  0  0  0  0  0  0  0  0  0
    2.0625   -1.5542    0.0000 N   0  0  0  0  0  0  0  0  0  0  0  0
    2.7750   -2.7917    0.0000 C   0  0  0  0  0  0  0  0  0  0  0  0
    2.7750   -1.9667    0.0000 C   0  0  0  0  0  0  0  0  0  0  0  0
    2.0625   -3.2042    0.0000 C   0  0  0  0  0  0  0  0  0  0  0  0
    1.3500   -1.9667    0.0000 C   0  0  0  0  0  0  0  0  0  0  0  0
    3.4875   -3.2042    0.0000 N   0  0  0  0  0  0  0  0  0  0  0  0
    8.5083   -4.4667    0.0000 C   0  0  0  0  0  0  0  0  0  0  0  0
    3.4875   -1.5542    0.0000 N   0  0  0  0  0  0  0  0  0  0  0  0
    9.2250   -4.0542    0.0000 N   0  0  0  0  0  0  0  0  0  0  0  0
    9.9333   -5.3000    0.0000 C   0  0  0  0  0  0  0  0  0  0  0  0
    9.9375   -4.4667    0.0000 C   0  0  3  0  0  0  0  0  0  0  0  0
    7.7875   -4.0417    0.0000 C   0  0  0  0  0  0  0  0  0  0  0  0
    4.2083   -2.7917    0.0000 C   0  0  0  0  0  0  0  0  0  0  0  0
   12.1000   -4.0750    0.0000 C   0  0  0  0  0  0  0  0  0  0  0  0
    8.5000   -5.2917    0.0000 O   0  0  0  0  0  0  0  0  0  0  0  0
   10.6458   -5.7125    0.0000 O   0  0  0  0  0  0  0  0  0  0  0  0
    5.6500   -2.8042    0.0000 N   0  0  0  0  0  0  0  0  0  0  0  0
   12.1083   -3.2417    0.0000 O   0  0  0  0  0  0  0  0  0  0  0  0
    2.0625   -4.0292    0.0000 N   0  0  0  0  0  0  0  0  0  0  0  0
    4.2083   -1.9750    0.0000 C   0  0  0  0  0  0  0  0  0  0  0  0
    0.6333   -1.5542    0.0000 N   0  0  0  0  0  0  0  0  0  0  0  0
   10.6625   -4.0625    0.0000 C   0  0  0  0  0  0  0  0  0  0  0  0
    7.0708   -4.4542    0.0000 C   0  0  0  0  0  0  0  0  0  0  0  0
    7.7875   -3.2167    0.0000 C   0  0  0  0  0  0  0  0  0  0  0  0
    4.9250   -3.2167    0.0000 C   0  0  0  0  0  0  0  0  0  0  0  0
    6.3625   -3.2167    0.0000 C   0  0  0  0  0  0  0  0  0  0  0  0
   11.3750   -4.4792    0.0000 C   0  0  0  0  0  0  0  0  0  0  0  0
    9.2125   -5.7125    0.0000 O   0  0  0  0  0  0  0  0  0  0  0  0
   12.8125   -4.4875    0.0000 O   0  0  0  0  0  0  0  0  0  0  0  0
    7.0750   -2.8042    0.0000 C   0  0  0  0  0  0  0  0  0  0  0  0
    6.3500   -4.0417    0.0000 C   0  0  0  0  0  0  0  0  0  0  0  0
  2  6  2  0  0  0  0
  3  5  1  0  0  0  0
  4  2  1  0  0  0  0
  5  1  2  0  0  0  0
  6  1  1  0  0  0  0
  7  3  2  0  0  0  0
  8 13  1  0  0  0  0
  9  4  2  0  0  0  0
 10  8  1  0  0  0  0
 11 12  1  0  0  0  0
 12 10  1  0  0  0  0
 13 24  1  0  0  0  0
 14  7  1  0  0  0  0
 15 28  1  0  0  0  0
 16  8  2  0  0  0  0
 17 11  2  0  0  0  0
 18 26  1  0  0  0  0
 19 15  2  0  0  0  0
 20  5  1  0  0  0  0
 21  9  1  0  0  0  0
 22  6  1  0  0  0  0
 23 12  1  0  0  0  0
 24 32  2  0  0  0  0
 25 31  1  0  0  0  0
 26 14  1  0  0  0  0
 27 18  1  0  0  0  0
 28 23  1  0  0  0  0
 29 11  1  0  0  0  0
 30 15  1  0  0  0  0
 31 27  2  0  0  0  0
 32 27  1  0  0  0  0
  3  4  1  0  0  0  0
 14 21  2  0  0  0  0
 13 25  2  0  0  0  0
M  END
> <#>
40

> <PLATE>
LAT001

> <ROW>
H

> <COL>
6

> <COORD>
H06

> <LATID>
LAT001H06

> <Supplier>
Microsource

> <Suplier_CAT#>
1500679

> <Name>
Aminopterin

> <Concentration_(mM)>
2.5

> <IC50_(µM)>
0.023

> <Yeast_Active?>
-

> <Pubchem_CID>
2154

$$$$
