
  -ISIS-  08130814242D

 10 10  0  0  0  0  0  0  0  0999 V2000
    3.0845   -1.0604    0.0000 C   0  0  0  0  0  0  0  0  0  0  0  0
    3.7095   -2.1429    0.0000 C   0  0  0  0  0  0  0  0  0  0  0  0
    3.7095    0.0221    0.0000 O   0  0  0  0  0  0  0  0  0  0  0  0
    1.8345   -1.0604    0.0000 C   0  0  0  0  0  0  0  0  0  0  0  0
    1.2095   -2.1429    0.0000 C   0  0  0  0  0  0  0  0  0  0  0  0
   -0.0405   -2.1429    0.0000 C   0  0  0  0  0  0  0  0  0  0  0  0
   -0.6655   -1.0604    0.0000 C   0  0  0  0  0  0  0  0  0  0  0  0
   -0.0405    0.0221    0.0000 C   0  0  0  0  0  0  0  0  0  0  0  0
    1.2095    0.0221    0.0000 C   0  0  0  0  0  0  0  0  0  0  0  0
   -1.9155   -1.0604    0.0000 Br  0  0  0  0  0  0  0  0  0  0  0  0
  1  2  1  0  0  0  0
  4  5  1  0  0  0  0
  5  6  2  0  0  0  0
  6  7  1  0  0  0  0
  7  8  2  0  0  0  0
  8  9  1  0  0  0  0
  4  9  2  0  0  0  0
  1  3  2  0  0  0  0
  1  4  1  0  0  0  0
  7 10  1  0  0  0  0
M  END
> <#>
371

> <PLATE>
LAT005

> <ROW>
C

> <COL>
8

> <COORD>
C08

> <LATID>
LAT005C08

> <Supplier>
Aldrich

> <Suplier_CAT#>
B56404

> <Name>
4'-Bromoacetophenone

> <Concentration_(mM)>
2.5

> <IC50_(µM)>
inactive

> <Yeast_Active?>
-

> <Pubchem_CID>
7466

$$$$
