
  -ISIS-  08130814242D

 24 26  0  0  0  0  0  0  0  0999 V2000
    4.6393   -1.5771    0.0000 C   0  0  0  0  0  0  0  0  0  0  0  0
    5.7218   -2.2021    0.0000 C   0  0  0  0  0  0  0  0  0  0  0  0
    5.7218   -3.4521    0.0000 C   0  0  0  0  0  0  0  0  0  0  0  0
    6.8043   -4.0771    0.0000 O   0  0  0  0  0  0  0  0  0  0  0  0
    4.6393   -4.0771    0.0000 O   0  0  0  0  0  0  0  0  0  0  0  0
    3.5567   -3.4521    0.0000 C   0  0  0  0  0  0  0  0  0  0  0  0
    2.4742   -4.0771    0.0000 C   0  0  0  0  0  0  0  0  0  0  0  0
    1.3917   -3.4521    0.0000 C   0  0  0  0  0  0  0  0  0  0  0  0
    1.3917   -2.2021    0.0000 C   0  0  0  0  0  0  0  0  0  0  0  0
    2.4742   -1.5771    0.0000 C   0  0  0  0  0  0  0  0  0  0  0  0
    3.5567   -2.2021    0.0000 C   0  0  0  0  0  0  0  0  0  0  0  0
    0.3091   -1.5771    0.0000 O   0  0  0  0  0  0  0  0  0  0  0  0
   -0.7734   -2.2021    0.0000 C   0  0  3  0  0  0  0  0  0  0  0  0
   -1.8559   -1.5771    0.0000 C   0  0  3  0  0  0  0  0  0  0  0  0
   -2.9385   -2.2021    0.0000 C   0  0  3  0  0  0  0  0  0  0  0  0
   -2.9385   -3.4521    0.0000 C   0  0  3  0  0  0  0  0  0  0  0  0
   -1.8559   -4.0771    0.0000 C   0  0  3  0  0  0  0  0  0  0  0  0
   -0.7734   -3.4521    0.0000 O   0  0  0  0  0  0  0  0  0  0  0  0
   -1.8559   -5.3271    0.0000 C   0  0  0  0  0  0  0  0  0  0  0  0
   -2.9385   -5.9521    0.0000 O   0  0  0  0  0  0  0  0  0  0  0  0
   -4.0210   -4.0771    0.0000 O   0  0  0  0  0  0  0  0  0  0  0  0
   -4.0210   -1.5771    0.0000 O   0  0  0  0  0  0  0  0  0  0  0  0
   -1.8559   -0.3271    0.0000 O   0  0  0  0  0  0  0  0  0  0  0  0
    0.3091   -4.0771    0.0000 O   0  0  0  0  0  0  0  0  0  0  0  0
  1  2  2  0  0  0  0
  2  3  1  0  0  0  0
  3  4  2  0  0  0  0
  3  5  1  0  0  0  0
  5  6  1  0  0  0  0
  6  7  2  0  0  0  0
  7  8  1  0  0  0  0
  8  9  2  0  0  0  0
  9 10  1  0  0  0  0
 10 11  2  0  0  0  0
  6 11  1  0  0  0  0
  1 11  1  0  0  0  0
  9 12  1  0  0  0  0
 12 13  1  0  0  0  0
 13 14  1  0  0  0  0
 14 15  1  0  0  0  0
 15 16  1  0  0  0  0
 16 17  1  0  0  0  0
 17 18  1  0  0  0  0
 13 18  1  0  0  0  0
 17 19  1  0  0  0  0
 19 20  1  0  0  0  0
 16 21  1  0  0  0  0
 15 22  1  0  0  0  0
 14 23  1  0  0  0  0
  8 24  1  0  0  0  0
M  END
> <#>
358

> <PLATE>
LAT005

> <ROW>
F

> <COL>
6

> <COORD>
F06

> <LATID>
LAT005F06

> <Supplier>
Fluka

> <Suplier_CAT#>
2350

> <Name>
Esculin Sesquihydrate

> <Concentration_(mM)>
2.5

> <IC50_(µM)>
>100

> <Yeast_Active?>
-

> <Pubchem_CID>
5281417

$$$$
