
  -ISIS-  08130814242D

 29 32  0  0  0  0  0  0  0  0999 V2000
    3.5500   -2.0875    0.0000 C   0  0  0  0  0  0  0  0  0  0  0  0
    2.2542   -2.0875    0.0000 C   0  0  0  0  0  0  0  0  0  0  0  0
    2.2542   -2.8375    0.0000 C   0  0  0  0  0  0  0  0  0  0  0  0
    2.9042   -1.7042    0.0000 C   0  0  3  0  0  0  0  0  0  0  0  0
    3.5500   -2.8375    0.0000 C   0  0  0  0  0  0  0  0  0  0  0  0
    2.9042   -3.2042    0.0000 N   0  0  0  0  0  0  0  0  0  0  0  0
    1.6042   -1.7042    0.0000 C   0  0  0  0  0  0  0  0  0  0  0  0
    4.2042   -1.7042    0.0000 C   0  0  0  0  0  0  0  0  0  0  0  0
    2.9167   -0.3792    0.0000 C   0  0  0  0  0  0  0  0  0  0  0  0
    1.6042   -3.2042    0.0000 C   0  0  0  0  0  0  0  0  0  0  0  0
    0.9542   -2.8375    0.0000 C   0  0  3  0  0  0  0  0  0  0  0  0
    0.9542   -2.0875    0.0000 C   0  0  0  0  0  0  0  0  0  0  0  0
    1.6042   -0.9542    0.0000 O   0  0  0  0  0  0  0  0  0  0  0  0
    3.5667    0.0000    0.0000 C   0  0  0  0  0  0  0  0  0  0  0  0
    4.2042   -0.9542    0.0000 O   0  0  0  0  0  0  0  0  0  0  0  0
    0.3167   -3.2042    0.0000 C   0  0  0  0  0  0  0  0  0  0  0  0
    4.8542   -2.0792    0.0000 O   0  0  0  0  0  0  0  0  0  0  0  0
    4.2042   -3.2167    0.0000 C   0  0  0  0  0  0  0  0  0  0  0  0
    4.2167   -0.3792    0.0000 I   0  0  0  0  0  0  0  0  0  0  0  0
    2.2667    0.0000    0.0000 C   0  0  0  0  0  0  0  0  0  0  0  0
    3.5667    0.7333    0.0000 C   0  0  0  0  0  0  0  0  0  0  0  0
    0.3167   -3.9542    0.0000 C   0  0  0  0  0  0  0  0  0  0  0  0
   -0.3208   -2.8375    0.0000 C   0  0  0  0  0  0  0  0  0  0  0  0
    4.8542   -2.8375    0.0000 C   0  0  0  0  0  0  0  0  0  0  0  0
    2.2667    0.7333    0.0000 C   0  0  0  0  0  0  0  0  0  0  0  0
   -0.3208   -4.3375    0.0000 C   0  0  0  0  0  0  0  0  0  0  0  0
   -0.9708   -3.2042    0.0000 C   0  0  0  0  0  0  0  0  0  0  0  0
    2.9167    1.1125    0.0000 C   0  0  0  0  0  0  0  0  0  0  0  0
   -0.9708   -3.9542    0.0000 C   0  0  0  0  0  0  0  0  0  0  0  0
  2  4  1  0  0  0  0
  3  6  1  0  0  0  0
  4  1  1  0  0  0  0
  5  1  2  0  0  0  0
  6  5  1  0  0  0  0
  7  2  1  0  0  0  0
  8  1  1  0  0  0  0
  9  4  1  0  0  0  0
 10  3  1  0  0  0  0
 11 10  1  0  0  0  0
 12  7  1  0  0  0  0
 13  7  2  0  0  0  0
 14  9  2  0  0  0  0
 15  8  2  0  0  0  0
 16 11  1  0  0  0  0
 17  8  1  0  0  0  0
 18  5  1  0  0  0  0
 19 14  1  0  0  0  0
 20  9  1  0  0  0  0
 21 14  1  0  0  0  0
 22 16  2  0  0  0  0
 23 16  1  0  0  0  0
 24 17  1  0  0  0  0
 25 20  2  0  0  0  0
 26 22  1  0  0  0  0
 27 23  2  0  0  0  0
 28 25  1  0  0  0  0
 29 27  1  0  0  0  0
  3  2  2  0  0  0  0
 11 12  1  0  0  0  0
 28 21  2  0  0  0  0
 26 29  2  0  0  0  0
M  END
> <#>
581

> <PLATE>
LAT008

> <ROW>
E

> <COL>
4

> <COORD>
E04

> <LATID>
LAT008E04

> <Supplier>
Chembridge

> <Suplier_CAT#>
5467298

> <Name>
Novel

> <Sec_Name>
131_C04

> <Concentration_(mM)>
2.5

> <IC50_(µM)>
9

> <Yeast_Active?>
-

> <Pubchem_CID>
1098465

$$$$
