
  -ISIS-  08130814242D

 12 12  0  0  0  0  0  0  0  0999 V2000
    4.4750  -10.0792    0.0000 C   0  0  0  0  0  0  0  0  0  0  0  0
    3.8167   -9.7000    0.0000 C   0  0  0  0  0  0  0  0  0  0  0  0
    4.4750  -10.8292    0.0000 C   0  0  0  0  0  0  0  0  0  0  0  0
    3.1750  -10.0792    0.0000 C   0  0  0  0  0  0  0  0  0  0  0  0
    3.1667  -12.3292    0.0000 C   0  0  0  0  0  0  0  0  0  0  0  0
    3.1667  -13.0792    0.0000 C   0  0  0  0  0  0  0  0  0  0  0  0
    3.8167  -11.2042    0.0000 C   0  0  0  0  0  0  0  0  0  0  0  0
    3.1750  -10.8292    0.0000 C   0  0  0  0  0  0  0  0  0  0  0  0
    5.1250   -9.7042    0.0000 O   0  0  0  0  0  0  0  0  0  0  0  0
    3.8167   -8.9500    0.0000 O   0  0  0  0  0  0  0  0  0  0  0  0
    3.8167  -11.9542    0.0000 C   0  0  0  0  0  0  0  0  0  0  0  0
    5.7750  -10.0792    0.0000 C   0  0  0  0  0  0  0  0  0  0  0  0
  2  1  1  0  0  0  0
  3  1  2  0  0  0  0
  4  2  2  0  0  0  0
  5 11  1  0  0  0  0
  6  5  2  0  0  0  0
  7  3  1  0  0  0  0
  8  7  2  0  0  0  0
  9  1  1  0  0  0  0
 10  2  1  0  0  0  0
 11  7  1  0  0  0  0
 12  9  1  0  0  0  0
  4  8  1  0  0  0  0
M  END
> <#>
28

> <PLATE>
LAT001

> <ROW>
D

> <COL>
5

> <COORD>
D05

> <LATID>
LAT001D05

> <Supplier>
Microsource

> <Suplier_CAT#>
01500296

> <Name>
Eugenol

> <Concentration_(mM)>
2.5

> <IC50_(µM)>
46

> <Yeast_Active?>
-

> <Pubchem_CID>
3314

> <Description>
Analgesic (Topical), Antiseptic, Antifungal

> <Source>
common in plant essential oils

$$$$
