
  -ISIS-  08130814242D

 27 31  0  0  0  0  0  0  0  0999 V2000
    7.0333   -2.8792    0.0000 C   0  0  0  0  0  0  0  0  0  0  0  0
    7.3667   -2.2750    0.0000 C   0  0  0  0  0  0  0  0  0  0  0  0
    7.9542   -1.8625    0.0000 C   0  0  3  0  0  0  0  0  0  0  0  0
    7.7417   -2.5208    0.0000 C   0  0  3  0  0  0  0  0  0  0  0  0
    7.8042   -1.1125    0.0000 C   0  0  0  0  0  0  0  0  0  0  0  0
    8.6833   -2.2875    0.0000 C   0  0  0  0  0  0  0  0  0  0  0  0
    8.4125   -2.8583    0.0000 C   0  0  2  0  0  0  0  0  0  0  0  0
    5.2287   -4.1614    0.0000 N   0  0  3  0  0  0  0  0  0  0  0  0
    4.4648   -4.4066    0.0000 C   0  0  1  0  0  0  0  0  0  0  0  0
    5.8538   -4.6004    0.0000 C   0  0  0  0  0  0  0  0  0  0  0  0
    5.5111   -3.3381    0.0000 C   0  0  0  0  0  0  0  0  0  0  0  0
    4.2129   -5.1493    0.0000 C   0  0  1  0  0  0  0  0  0  0  0  0
    3.7983   -3.9094    0.0000 O   0  0  0  0  0  0  0  0  0  0  0  0
    6.5854   -4.0619    0.0000 C   0  0  0  0  0  0  0  0  0  0  0  0
    5.9297   -5.4343    0.0000 N   0  0  0  0  0  0  0  0  0  0  0  0
    6.3652   -3.3423    0.0000 N   0  0  0  0  0  0  0  0  0  0  0  0
    3.3977   -5.1493    0.0000 C   0  0  1  0  0  0  0  0  0  0  0  0
    4.4576   -5.9300    0.0000 O   0  0  0  0  0  0  0  0  0  0  0  0
    3.1474   -4.3761    0.0000 C   0  0  1  0  0  0  0  0  0  0  0  0
    7.3255   -4.3873    0.0000 C   0  0  0  0  0  0  0  0  0  0  0  0
    6.7109   -5.7822    0.0000 C   0  0  0  0  0  0  0  0  0  0  0  0
    3.1334   -5.9259    0.0000 O   0  0  0  0  0  0  0  0  0  0  0  0
    2.3802   -4.1309    0.0000 C   0  0  0  0  0  0  0  0  0  0  0  0
    7.4210   -5.2633    0.0000 N   0  0  0  0  0  0  0  0  0  0  0  0
    7.9773   -3.9016    0.0000 N   0  0  0  0  0  0  0  0  0  0  0  0
    2.3560   -3.3283    0.0000 O   0  0  0  0  0  0  0  0  0  0  0  0
    9.1250   -2.4417    0.0000 H   0  0  0  0  0  0  0  0  0  0  0  0
  2  3  1  0  0  0  0
  1  4  1  0  0  0  0
  4  5  1  0  0  0  0
  5  3  1  0  0  0  0
  3  6  1  0  0  0  0
  6  7  1  0  0  0  0
  7  4  1  0  0  0  0
  9  8  1  1  0  0  0
  8 10  1  0  0  0  0
  8 11  1  0  0  0  0
 12  9  1  0  0  0  0
  9 13  1  0  0  0  0
 10 14  2  0  0  0  0
 10 15  1  0  0  0  0
 11 16  2  0  0  0  0
 12 17  1  0  0  0  0
 12 18  1  6  0  0  0
 13 19  1  0  0  0  0
 14 20  1  0  0  0  0
 15 21  2  0  0  0  0
 17 22  1  6  0  0  0
 19 23  1  1  0  0  0
 20 24  2  0  0  0  0
 20 25  1  0  0  0  0
 23 26  1  0  0  0  0
 14 16  1  0  0  0  0
 17 19  1  0  0  0  0
 21 24  1  0  0  0  0
 25  7  1  0  0  0  0
  1  2  1  0  0  0  0
  7 27  1  1  0  0  0
M  END
> <#>
229

> <PLATE>
LAT003

> <ROW>
E

> <COL>
10

> <COORD>
E10

> <LATID>
LAT003E10

> <Supplier>
Sigma

> <Suplier_CAT#>
E-111

> <Name>
(S)-Enba

> <Concentration_(mM)>
2.5

> <IC50_(µM)>
44

> <Yeast_Active?>
-

> <Pubchem_CID>
5311431

> <Description>
Selective A1 adenosine receptor agonist

> <LATCA_Notes>
Kinetin analog with potent cytokinin activity

$$$$
