
  -ISIS-  08130814242D

 18 19  0  0  0  0  0  0  0  0999 V2000
    2.0167   -1.6542    0.0000 S   0  0  3  0  0  0  0  0  0  0  0  0
    2.8375   -1.6750    0.0000 N   0  0  0  0  0  0  0  0  0  0  0  0
    3.6625   -1.6792    0.0000 C   0  0  0  0  0  0  0  0  0  0  0  0
    4.0750   -2.4042    0.0000 N   0  0  0  0  0  0  0  0  0  0  0  0
    4.8917   -2.4125    0.0000 N   0  0  0  0  0  0  0  0  0  0  0  0
    1.1917   -1.6417    0.0000 C   0  0  0  0  0  0  0  0  0  0  0  0
    2.0417   -0.8292    0.0000 O   0  0  0  0  0  0  0  0  0  0  0  0
    2.0167   -2.6542    0.0000 O   0  0  0  0  0  0  0  0  0  0  0  0
    5.3167   -1.7042    0.0000 C   0  0  0  0  0  0  0  0  0  0  0  0
    0.7750   -2.3375    0.0000 C   0  0  0  0  0  0  0  0  0  0  0  0
    0.7917   -0.9167    0.0000 C   0  0  0  0  0  0  0  0  0  0  0  0
    4.0792   -0.9875    0.0000 C   0  0  0  0  0  0  0  0  0  0  0  0
    6.1417   -1.7042    0.0000 Cl  0  0  0  0  0  0  0  0  0  0  0  0
   -0.4458   -1.6042    0.0000 C   0  0  0  0  0  0  0  0  0  0  0  0
    4.9167   -0.9792    0.0000 C   0  0  0  0  0  0  0  0  0  0  0  0
   -1.2708   -1.5875    0.0000 N   0  0  0  0  0  0  0  0  0  0  0  0
   -0.0125   -0.9042    0.0000 C   0  0  0  0  0  0  0  0  0  0  0  0
   -0.0583   -2.3250    0.0000 C   0  0  0  0  0  0  0  0  0  0  0  0
  2  1  1  0  0  0  0
  3  2  1  0  0  0  0
  4  3  1  0  0  0  0
  5  4  2  0  0  0  0
  6  1  1  0  0  0  0
  7  1  2  0  0  0  0
  8  1  2  0  0  0  0
  9 15  2  0  0  0  0
 10  6  1  0  0  0  0
 11  6  2  0  0  0  0
 12  3  2  0  0  0  0
 13  9  1  0  0  0  0
 14 17  2  0  0  0  0
 15 12  1  0  0  0  0
 16 14  1  0  0  0  0
 17 11  1  0  0  0  0
 18 10  2  0  0  0  0
 14 18  1  0  0  0  0
  5  9  1  0  0  0  0
M  END
> <#>
69

> <PLATE>
LAT001

> <ROW>
E

> <COL>
10

> <COORD>
E10

> <LATID>
LAT001E10

> <Supplier>
Microsource

> <Suplier_CAT#>
01501142

> <Name>
Sulfachlorpyridazine

> <Concentration_(mM)>
2.5

> <IC50_(µM)>
0.88

> <Yeast_Active?>
-

> <Pubchem_CID>
6634

> <Description>
Antibacterial

$$$$
