
  -ISIS-  08130814242D

 13 13  0  0  0  0  0  0  0  0999 V2000
    4.8292   -1.9112    0.0000 C   0  0  1  0  0  0  0  0  0  0  0  0
    6.0792   -1.9112    0.0000 C   0  0  1  0  0  0  0  0  0  0  0  0
    6.7042   -2.9938    0.0000 C   0  0  2  0  0  0  0  0  0  0  0  0
    6.0792   -4.0763    0.0000 O   0  0  0  0  0  0  0  0  0  0  0  0
    4.8292   -4.0763    0.0000 C   0  0  3  0  0  0  0  0  0  0  0  0
    4.2042   -2.9938    0.0000 C   0  0  2  0  0  0  0  0  0  0  0  0
    2.9542   -2.9938    0.0000 O   0  0  0  0  0  0  0  0  0  0  0  0
    4.2042   -5.1588    0.0000 O   0  0  0  0  0  0  0  0  0  0  0  0
    7.9542   -2.9938    0.0000 C   0  0  0  0  0  0  0  0  0  0  0  0
    8.5792   -1.9112    0.0000 O   0  0  0  0  0  0  0  0  0  0  0  0
    8.5792   -4.0763    0.0000 O   0  0  0  0  0  0  0  0  0  0  0  0
    6.7042   -0.8287    0.0000 O   0  0  0  0  0  0  0  0  0  0  0  0
    4.2042   -0.8287    0.0000 O   0  0  0  0  0  0  0  0  0  0  0  0
  1  2  1  0  0  0  0
  2  3  1  0  0  0  0
  3  4  1  0  0  0  0
  4  5  1  0  0  0  0
  5  6  1  0  0  0  0
  1  6  1  0  0  0  0
  6  7  1  6  0  0  0
  5  8  1  0  0  0  0
  3  9  1  1  0  0  0
  9 10  2  0  0  0  0
  9 11  1  0  0  0  0
  2 12  1  6  0  0  0
  1 13  1  1  0  0  0
M  END
> <#>
408

> <PLATE>
LAT006

> <ROW>
H

> <COL>
2

> <COORD>
H02

> <LATID>
LAT006H02

> <Supplier>
Sigma

> <Suplier_CAT#>
G-9000

> <Name>
Glucuronic Acid

> <Concentration_(mM)>
2.5

> <IC50_(µM)>
inactive

> <Yeast_Active?>
-

> <Pubchem_CID>
610

$$$$
