
  -ISIS-  08130814242D

 22 23  0  0  0  0  0  0  0  0999 V2000
   -4.0000   -0.1042    0.0000 N   0  3  0  0  0  0  0  0  0  0  0  0
    1.7500   -0.0500    0.0000 C   0  0  0  0  0  0  0  0  0  0  0  0
   -0.5708    1.9583    0.0000 C   0  0  0  0  0  0  0  0  0  0  0  0
   -3.4833    0.9333    0.0000 C   0  0  0  0  0  0  0  0  0  0  0  0
    0.0167    0.9458    0.0000 N   0  0  0  0  0  0  0  0  0  0  0  0
   -1.7708    1.9333    0.0000 C   0  0  0  0  0  0  0  0  0  0  0  0
   -2.3333    0.9458    0.0000 C   0  0  0  0  0  0  0  0  0  0  0  0
    1.1500    0.9458    0.0000 N   0  0  0  0  0  0  0  0  0  0  0  0
   -5.1708   -0.2792    0.0000 O   0  5  0  0  0  0  0  0  0  0  0  0
    2.9167   -0.0500    0.0000 N   0  0  0  0  0  0  0  0  0  0  0  0
   -3.4333   -1.1167    0.0000 O   0  0  0  0  0  0  0  0  0  0  0  0
    1.1667   -1.0542    0.0000 S   0  0  0  0  0  0  0  0  0  0  0  0
    0.0167    2.9458    0.0000 O   0  0  0  0  0  0  0  0  0  0  0  0
    3.5000   -1.0292    0.0000 C   0  0  3  0  0  0  0  0  0  0  0  0
   -4.1125    1.9333    0.0000 C   0  0  0  0  0  0  0  0  0  0  0  0
   -2.3708    2.9625    0.0000 C   0  0  0  0  0  0  0  0  0  0  0  0
   -3.5208    2.9625    0.0000 C   0  0  0  0  0  0  0  0  0  0  0  0
    4.6500   -1.0292    0.0000 C   0  0  0  0  0  0  0  0  0  0  0  0
    2.9167   -2.0542    0.0000 C   0  0  0  0  0  0  0  0  0  0  0  0
    5.2375   -2.0375    0.0000 C   0  0  0  0  0  0  0  0  0  0  0  0
    3.5000   -3.0667    0.0000 C   0  0  0  0  0  0  0  0  0  0  0  0
    4.6875   -3.0375    0.0000 C   0  0  0  0  0  0  0  0  0  0  0  0
  2  8  1  0  0  0  0
  3  6  1  0  0  0  0
  4  1  1  0  0  0  0
  5  3  1  0  0  0  0
  6  7  1  0  0  0  0
  7  4  2  0  0  0  0
  8  5  1  0  0  0  0
  9  1  1  0  0  0  0
 10  2  1  0  0  0  0
 11  1  2  0  0  0  0
 12  2  2  0  0  0  0
 13  3  2  0  0  0  0
 14 10  1  0  0  0  0
 15  4  1  0  0  0  0
 16 17  1  0  0  0  0
 17 15  2  0  0  0  0
 18 14  1  0  0  0  0
 19 14  1  0  0  0  0
 20 18  1  0  0  0  0
 21 19  1  0  0  0  0
 22 21  1  0  0  0  0
  6 16  2  0  0  0  0
 20 22  1  0  0  0  0
M  CHG  2   1   1   9  -1
M  END
> <#>
706

> <PLATE>
LAT009

> <ROW>
B

> <COL>
10

> <COORD>
B10

> <LATID>
LAT009B10

> <Supplier>
Chembridge

> <Suplier_CAT#>
5540762

> <Name>
Novel

> <Sec_Name>
158_A10

> <Concentration_(mM)>
2.5

> <IC50_(µM)>
31

> <Yeast_Active?>
-

> <Pubchem_CID>
3850449

$$$$
