
  -ISIS-  08130814242D

 23 24  0  0  0  0  0  0  0  0999 V2000
    2.7167   -0.3292    0.0000 C   0  0  0  0  0  0  0  0  0  0  0  0
   -0.1208   -0.3042    0.0000 C   0  0  0  0  0  0  0  0  0  0  0  0
    1.3042    0.5333    0.0000 N   0  0  0  0  0  0  0  0  0  0  0  0
    3.1875    0.4958    0.0000 C   0  0  0  0  0  0  0  0  0  0  0  0
    0.3500    0.5333    0.0000 N   0  0  0  0  0  0  0  0  0  0  0  0
    3.1875   -1.1500    0.0000 C   0  0  0  0  0  0  0  0  0  0  0  0
    0.3500   -1.1167    0.0000 O   0  0  0  0  0  0  0  0  0  0  0  0
    1.8000   -0.3292    0.0000 C   0  0  0  0  0  0  0  0  0  0  0  0
   -2.9458   -0.3000    0.0000 C   0  0  0  0  0  0  0  0  0  0  0  0
    4.1167    0.4958    0.0000 C   0  0  0  0  0  0  0  0  0  0  0  0
   -1.0833   -0.3042    0.0000 C   0  0  0  0  0  0  0  0  0  0  0  0
   -1.5458    0.5125    0.0000 O   0  0  0  0  0  0  0  0  0  0  0  0
    4.1500   -1.1500    0.0000 C   0  0  0  0  0  0  0  0  0  0  0  0
   -2.4708    0.5125    0.0000 C   0  0  0  0  0  0  0  0  0  0  0  0
   -3.8708   -0.3000    0.0000 C   0  0  0  0  0  0  0  0  0  0  0  0
    2.7292    1.3125    0.0000 Br  0  0  0  0  0  0  0  0  0  0  0  0
    4.6167   -0.3292    0.0000 C   0  0  0  0  0  0  0  0  0  0  0  0
   -4.3208   -1.1167    0.0000 Cl  0  0  0  0  0  0  0  0  0  0  0  0
    4.6292   -1.9542    0.0000 O   0  0  0  0  0  0  0  0  0  0  0  0
   -3.8833    1.3208    0.0000 C   0  0  0  0  0  0  0  0  0  0  0  0
   -2.9500    1.3208    0.0000 C   0  0  0  0  0  0  0  0  0  0  0  0
   -4.3500    0.5125    0.0000 C   0  0  0  0  0  0  0  0  0  0  0  0
    5.5375   -1.9500    0.0000 C   0  0  0  0  0  0  0  0  0  0  0  0
  2  5  1  0  0  0  0
  3  8  2  0  0  0  0
  4  1  1  0  0  0  0
  5  3  1  0  0  0  0
  6  1  2  0  0  0  0
  7  2  2  0  0  0  0
  8  1  1  0  0  0  0
  9 14  1  0  0  0  0
 10  4  2  0  0  0  0
 11  2  1  0  0  0  0
 12 11  1  0  0  0  0
 13  6  1  0  0  0  0
 14 12  1  0  0  0  0
 15  9  2  0  0  0  0
 16  4  1  0  0  0  0
 17 13  2  0  0  0  0
 18 15  1  0  0  0  0
 19 13  1  0  0  0  0
 20 21  1  0  0  0  0
 21 14  2  0  0  0  0
 22 20  2  0  0  0  0
 23 19  1  0  0  0  0
 10 17  1  0  0  0  0
 22 15  1  0  0  0  0
M  END
> <#>
619

> <PLATE>
LAT008

> <ROW>
C

> <COL>
9

> <COORD>
C09

> <LATID>
LAT008C09

> <Supplier>
Chembridge

> <Suplier_CAT#>
5535661

> <Name>
Novel

> <Sec_Name>
155_D03

> <Concentration_(mM)>
2.5

> <IC50_(µM)>
48

> <Yeast_Active?>
-

> <Pubchem_CID>
1368413

$$$$
