
  -ISIS-  08130814242D

 15 15  0  0  0  0  0  0  0  0999 V2000
    5.4292   -2.8042    0.0000 C   0  0  0  0  0  0  0  0  0  0  0  0
    4.6042   -2.8125    0.0000 C   0  0  0  0  0  0  0  0  0  0  0  0
    9.1417   -4.9417    0.0000 C   0  0  0  0  0  0  0  0  0  0  0  0
    5.8417   -3.5167    0.0000 C   0  0  0  0  0  0  0  0  0  0  0  0
    9.5542   -4.2250    0.0000 O   0  0  0  0  0  0  0  0  0  0  0  0
    5.4292   -4.2292    0.0000 C   0  0  0  0  0  0  0  0  0  0  0  0
    4.2000   -3.5250    0.0000 C   0  0  0  0  0  0  0  0  0  0  0  0
    5.8417   -2.0917    0.0000 Cl  0  0  0  0  0  0  0  0  0  0  0  0
    9.5542   -5.6542    0.0000 O   0  0  0  0  0  0  0  0  0  0  0  0
    4.6042   -4.2292    0.0000 C   0  0  0  0  0  0  0  0  0  0  0  0
    3.3750   -3.5250    0.0000 Cl  0  0  0  0  0  0  0  0  0  0  0  0
    6.6667   -3.5167    0.0000 O   0  0  0  0  0  0  0  0  0  0  0  0
    8.3167   -4.9417    0.0000 C   0  0  0  0  0  0  0  0  0  0  0  0
    7.0792   -4.2292    0.0000 C   0  0  0  0  0  0  0  0  0  0  0  0
    7.9042   -4.2292    0.0000 C   0  0  0  0  0  0  0  0  0  0  0  0
  2  1  1  0  0  0  0
  3 13  1  0  0  0  0
  4  1  2  0  0  0  0
  5  3  2  0  0  0  0
  6  4  1  0  0  0  0
  7  2  2  0  0  0  0
  8  1  1  0  0  0  0
  9  3  1  0  0  0  0
 10  6  2  0  0  0  0
 11  7  1  0  0  0  0
 12  4  1  0  0  0  0
 13 15  1  0  0  0  0
 14 12  1  0  0  0  0
 15 14  1  0  0  0  0
  7 10  1  0  0  0  0
M  END
> <#>
183

> <PLATE>
LAT003

> <ROW>
G

> <COL>
4

> <COORD>
G04

> <LATID>
LAT003G04

> <Supplier>
Microsource

> <Suplier_CAT#>
00330041

> <Name>
2,4-Dichlorophenoxybutyric Acid

> <Concentration_(mM)>
2.5

> <IC50_(µM)>
0.66

> <Yeast_Active?>
-

> <Pubchem_CID>
1489

> <Description>
Herbicide

> <Comment>
Auxin agonist

$$$$
