
  -ISIS-  08130814242D

 14 16  0  0  0  0  0  0  0  0999 V2000
    3.7833   -4.4917    0.0000 C   0  0  0  0  0  0  0  0  0  0  0  0
    4.3250   -3.5083    0.0000 C   0  0  0  0  0  0  0  0  0  0  0  0
    5.2792   -2.8333    0.0000 C   0  0  3  0  0  0  0  0  0  0  0  0
    4.9333   -3.9083    0.0000 C   0  0  3  0  0  0  0  0  0  0  0  0
    5.0375   -1.6125    0.0000 O   0  0  0  0  0  0  0  0  0  0  0  0
    6.4667   -3.5292    0.0000 C   0  0  3  0  0  0  0  0  0  0  0  0
    6.0292   -4.4583    0.0000 C   0  0  3  0  0  0  0  0  0  0  0  0
    6.8125   -5.1250    0.0000 C   0  0  0  0  0  0  0  0  0  0  0  0
    6.3333   -5.6000    0.0000 C   0  0  0  0  0  0  0  0  0  0  0  0
    7.1708   -4.1458    0.0000 C   0  0  0  0  0  0  0  0  0  0  0  0
    7.0917   -2.9042    0.0000 C   0  0  0  0  0  0  0  0  0  0  0  0
    7.6125   -4.9125    0.0000 O   0  0  0  0  0  0  0  0  0  0  0  0
    7.6792   -3.5375    0.0000 O   0  0  0  0  0  0  0  0  0  0  0  0
    7.1500   -2.2250    0.0000 O   0  0  0  0  0  0  0  0  0  0  0  0
  6  7  1  0  0  0  0
  7  4  1  0  0  0  0
  6  8  1  0  0  0  0
  1  2  1  0  0  0  0
  7  9  1  0  0  0  0
  2  3  1  0  0  0  0
  7 10  1  0  0  0  0
  1  4  1  0  0  0  0
  6 11  1  0  0  0  0
  4  5  1  0  0  0  0
 10 12  2  0  0  0  0
  5  3  1  0  0  0  0
 10 13  1  0  0  0  0
 11 13  1  0  0  0  0
  3  6  1  0  0  0  0
 11 14  2  0  0  0  0
M  END
> <#>
214

> <PLATE>
LAT003

> <ROW>
F

> <COL>
8

> <COORD>
F08

> <LATID>
LAT003F08

> <Supplier>
Sigma

> <Suplier_CAT#>
C 7632

> <Name>
Cantharidin

> <Concentration_(mM)>
2.5

> <IC50_(µM)>
1.5

> <Yeast_Active?>
-

> <Pubchem_CID>
2545

> <Description>
Protein phosphatase 2A inhibitor

$$$$
