
  -ISIS-  08130814242D

 22 24  0  0  0  0  0  0  0  0999 V2000
   -0.1833    0.1500    0.0000 C   0  0  0  0  0  0  0  0  0  0  0  0
    0.0000   -0.7042    0.0000 C   0  0  0  0  0  0  0  0  0  0  0  0
   -0.7458   -1.1292    0.0000 N   0  0  3  0  0  0  0  0  0  0  0  0
   -1.3833   -0.5500    0.0000 N   0  0  0  0  0  0  0  0  0  0  0  0
   -1.0208    0.2500    0.0000 C   0  0  0  0  0  0  0  0  0  0  0  0
    0.4000    0.8125    0.0000 C   0  0  0  0  0  0  0  0  0  0  0  0
    0.8167   -1.0500    0.0000 O   0  0  0  0  0  0  0  0  0  0  0  0
    0.1167    1.6333    0.0000 C   0  0  0  0  0  0  0  0  0  0  0  0
   -0.7458   -2.0042    0.0000 C   0  0  0  0  0  0  0  0  0  0  0  0
   -0.7458    1.7958    0.0000 C   0  0  0  0  0  0  0  0  0  0  0  0
    0.6792    2.2958    0.0000 C   0  0  0  0  0  0  0  0  0  0  0  0
    1.2542    0.6500    0.0000 O   0  0  0  0  0  0  0  0  0  0  0  0
   -0.4625    3.2708    0.0000 C   0  0  0  0  0  0  0  0  0  0  0  0
   -1.4458    1.0333    0.0000 C   0  0  0  0  0  0  0  0  0  0  0  0
    0.4000    3.1125    0.0000 C   0  0  0  0  0  0  0  0  0  0  0  0
   -1.0458    2.6125    0.0000 C   0  0  0  0  0  0  0  0  0  0  0  0
   -0.7458    4.1042    0.0000 Cl  0  0  0  0  0  0  0  0  0  0  0  0
    0.0000   -2.4292    0.0000 C   0  0  0  0  0  0  0  0  0  0  0  0
   -1.5000   -2.4292    0.0000 C   0  0  0  0  0  0  0  0  0  0  0  0
   -1.5208   -3.2875    0.0000 C   0  0  0  0  0  0  0  0  0  0  0  0
    0.0000   -3.3042    0.0000 C   0  0  0  0  0  0  0  0  0  0  0  0
   -0.7458   -3.7292    0.0000 C   0  0  0  0  0  0  0  0  0  0  0  0
  2  1  1  0  0  0  0
  3  2  1  0  0  0  0
  4  5  2  0  0  0  0
  5  1  1  0  0  0  0
  6  1  2  0  0  0  0
  7  2  2  0  0  0  0
  8  6  1  0  0  0  0
  9  3  1  0  0  0  0
 10  8  2  0  0  0  0
 11  8  1  0  0  0  0
 12  6  1  0  0  0  0
 13 15  1  0  0  0  0
 14  5  1  0  0  0  0
 15 11  2  0  0  0  0
 16 10  1  0  0  0  0
 17 13  1  0  0  0  0
 18  9  2  0  0  0  0
 19  9  1  0  0  0  0
 20 19  2  0  0  0  0
 21 18  1  0  0  0  0
 22 20  1  0  0  0  0
  4  3  1  0  0  0  0
 13 16  2  0  0  0  0
 21 22  2  0  0  0  0
M  END
> <#>
863

> <PLATE>
LAT011

> <ROW>
G

> <COL>
9

> <COORD>
G09

> <LATID>
LAT011G09

> <Supplier>
Chembridge

> <Suplier_CAT#>
5656154

> <Name>
Novel

> <Sec_Name>
203_E05

> <Concentration_(mM)>
2.5

> <IC50_(µM)>
62

> <Yeast_Active?>
-

> <Pubchem_CID>
NULL

$$$$
