
  -ISIS-  08130814242D

 27 29  0  0  0  0  0  0  0  0999 V2000
    1.4375    1.4833    0.0000 C   0  0  0  0  0  0  0  0  0  0  0  0
    1.8167    0.8125    0.0000 C   0  0  0  0  0  0  0  0  0  0  0  0
   -1.9500   -2.6667    0.0000 N   0  3  0  0  0  0  0  0  0  0  0  0
   -1.2958   -2.2792    0.0000 C   0  0  0  0  0  0  0  0  0  0  0  0
    0.0292   -1.5292    0.0000 C   0  0  0  0  0  0  0  0  0  0  0  0
    1.4292    0.1500    0.0000 N   0  0  3  0  0  0  0  0  0  0  0  0
   -1.2958   -1.5292    0.0000 C   0  0  0  0  0  0  0  0  0  0  0  0
    0.6667   -1.1500    0.0000 N   0  0  3  0  0  0  0  0  0  0  0  0
    1.8042    2.1208    0.0000 C   0  0  0  0  0  0  0  0  0  0  0  0
   -0.6208   -1.1500    0.0000 C   0  0  0  0  0  0  0  0  0  0  0  0
    0.0292   -2.2792    0.0000 C   0  0  0  0  0  0  0  0  0  0  0  0
   -0.6208   -2.6667    0.0000 C   0  0  0  0  0  0  0  0  0  0  0  0
   -2.6000   -2.2875    0.0000 O   0  5  0  0  0  0  0  0  0  0  0  0
   -1.9500   -3.4375    0.0000 O   0  0  0  0  0  0  0  0  0  0  0  0
    2.5792    0.8125    0.0000 O   0  0  0  0  0  0  0  0  0  0  0  0
    0.6667    0.1500    0.0000 C   0  0  0  0  0  0  0  0  0  0  0  0
    1.8042   -0.5000    0.0000 C   0  0  0  0  0  0  0  0  0  0  0  0
    0.2875   -0.5000    0.0000 C   0  0  0  0  0  0  0  0  0  0  0  0
    1.4292   -1.1500    0.0000 C   0  0  0  0  0  0  0  0  0  0  0  0
    1.4375    2.7708    0.0000 C   0  0  0  0  0  0  0  0  0  0  0  0
    2.5542    2.1125    0.0000 F   0  0  0  0  0  0  0  0  0  0  0  0
   -0.6208   -0.3875    0.0000 F   0  0  0  0  0  0  0  0  0  0  0  0
    0.6667    1.4958    0.0000 C   0  0  0  0  0  0  0  0  0  0  0  0
    1.8375    3.4000    0.0000 F   0  0  0  0  0  0  0  0  0  0  0  0
   -0.6208   -3.4042    0.0000 C   0  0  0  0  0  0  0  0  0  0  0  0
    0.2875    2.1458    0.0000 C   0  0  0  0  0  0  0  0  0  0  0  0
    0.6667    2.7958    0.0000 C   0  0  0  0  0  0  0  0  0  0  0  0
  2  1  1  0  0  0  0
  3  4  1  0  0  0  0
  4 12  2  0  0  0  0
  5  8  1  0  0  0  0
  6  2  1  0  0  0  0
  7 10  2  0  0  0  0
  8 19  1  0  0  0  0
  9  1  2  0  0  0  0
 10  5  1  0  0  0  0
 11  5  2  0  0  0  0
 12 11  1  0  0  0  0
 13  3  1  0  0  0  0
 14  3  2  0  0  0  0
 15  2  2  0  0  0  0
 16  6  1  0  0  0  0
 17  6  1  0  0  0  0
 18 16  1  0  0  0  0
 19 17  1  0  0  0  0
 20  9  1  0  0  0  0
 21  9  1  0  0  0  0
 22 10  1  0  0  0  0
 23  1  1  0  0  0  0
 24 20  1  0  0  0  0
 25 12  1  0  0  0  0
 26 23  2  0  0  0  0
 27 26  1  0  0  0  0
 27 20  2  0  0  0  0
  8 18  1  0  0  0  0
  4  7  1  0  0  0  0
M  CHG  2   3   1  13  -1
M  END
> <#>
1021

> <PLATE>
LAT013

> <ROW>
E

> <COL>
9

> <COORD>
E09

> <LATID>
LAT013E09

> <Supplier>
Chembridge

> <Suplier_CAT#>
5784680

> <Name>
Novel

> <Sec_Name>
248_D04

> <Concentration_(mM)>
2.5

> <IC50_(µM)>
55

> <Yeast_Active?>
-

> <Pubchem_CID>
NULL

$$$$
