
  -ISIS-  08130814242D

 25 27  0  0  0  0  0  0  0  0999 V2000
   -2.0708    1.2833    0.0000 C   0  0  0  0  0  0  0  0  0  0  0  0
   -1.2125    1.7833    0.0000 C   0  0  0  0  0  0  0  0  0  0  0  0
   -0.3708    1.3000    0.0000 N   0  0  3  0  0  0  0  0  0  0  0  0
    1.3292    0.3000    0.0000 N   0  0  3  0  0  0  0  0  0  0  0  0
   -2.0708    0.3000    0.0000 C   0  0  0  0  0  0  0  0  0  0  0  0
    2.1667   -0.2000    0.0000 C   0  0  0  0  0  0  0  0  0  0  0  0
   -2.9125    1.7833    0.0000 C   0  0  0  0  0  0  0  0  0  0  0  0
   -2.9125   -0.2000    0.0000 C   0  0  0  0  0  0  0  0  0  0  0  0
   -1.1958    2.7708    0.0000 O   0  0  0  0  0  0  0  0  0  0  0  0
    0.4875    1.7833    0.0000 C   0  0  0  0  0  0  0  0  0  0  0  0
   -0.3708    0.3208    0.0000 C   0  0  0  0  0  0  0  0  0  0  0  0
    0.4667   -0.1792    0.0000 C   0  0  0  0  0  0  0  0  0  0  0  0
    1.3500    1.2833    0.0000 C   0  0  0  0  0  0  0  0  0  0  0  0
    2.1667   -1.1792    0.0000 C   0  0  0  0  0  0  0  0  0  0  0  0
   -3.7708    0.3000    0.0000 C   0  0  0  0  0  0  0  0  0  0  0  0
   -1.2333   -0.2167    0.0000 Cl  0  0  0  0  0  0  0  0  0  0  0  0
   -3.7708    1.3000    0.0000 C   0  0  0  0  0  0  0  0  0  0  0  0
   -4.6333   -0.2375    0.0000 Cl  0  0  0  0  0  0  0  0  0  0  0  0
    1.3042   -1.7000    0.0000 O   0  0  0  0  0  0  0  0  0  0  0  0
    3.0042    0.3000    0.0000 C   0  0  0  0  0  0  0  0  0  0  0  0
    3.0042   -1.6792    0.0000 C   0  0  0  0  0  0  0  0  0  0  0  0
    1.3292   -2.6792    0.0000 C   0  0  0  0  0  0  0  0  0  0  0  0
    0.5042   -3.1792    0.0000 C   0  0  0  0  0  0  0  0  0  0  0  0
    3.8667   -0.2000    0.0000 C   0  0  0  0  0  0  0  0  0  0  0  0
    3.8500   -1.2000    0.0000 C   0  0  0  0  0  0  0  0  0  0  0  0
  2  1  1  0  0  0  0
  3  2  1  0  0  0  0
  4 12  1  0  0  0  0
  5  1  2  0  0  0  0
  6  4  1  0  0  0  0
  7  1  1  0  0  0  0
  8  5  1  0  0  0  0
  9  2  2  0  0  0  0
 10  3  1  0  0  0  0
 11  3  1  0  0  0  0
 12 11  1  0  0  0  0
 13 10  1  0  0  0  0
 14  6  1  0  0  0  0
 15 17  1  0  0  0  0
 16  5  1  0  0  0  0
 17  7  2  0  0  0  0
 18 15  1  0  0  0  0
 19 14  1  0  0  0  0
 20  6  2  0  0  0  0
 21 14  2  0  0  0  0
 22 19  1  0  0  0  0
 23 22  1  0  0  0  0
 24 20  1  0  0  0  0
 25 24  2  0  0  0  0
  8 15  2  0  0  0  0
  4 13  1  0  0  0  0
 21 25  1  0  0  0  0
M  END
> <#>
912

> <PLATE>
LAT012

> <ROW>
H

> <COL>
5

> <COORD>
H05

> <LATID>
LAT012H05

> <Supplier>
Chembridge

> <Suplier_CAT#>
5686419

> <Name>
Novel

> <Sec_Name>
218_C08

> <Concentration_(mM)>
2.5

> <IC50_(µM)>
8.2

> <Yeast_Active?>
-

> <Pubchem_CID>
1219591

$$$$
