
  -ISIS-  08130814242D

 31 34  0  0  0  0  0  0  0  0999 V2000
    6.1292   -6.3417    0.0000 C   0  0  2  0  0  0  0  0  0  0  0  0
    6.9167   -6.0917    0.0000 C   0  0  1  0  0  0  0  0  0  0  0  0
    3.9875   -7.5875    0.0000 C   0  0  1  0  0  0  0  0  0  0  0  0
    6.1292   -7.1750    0.0000 C   0  0  3  0  0  0  0  0  0  0  0  0
    3.9875   -8.4125    0.0000 C   0  0  0  0  0  0  0  0  0  0  0  0
    4.7000   -7.1750    0.0000 C   0  0  3  0  0  0  0  0  0  0  0  0
    5.4167   -7.5875    0.0000 C   0  0  3  0  0  0  0  0  0  0  0  0
    3.2750   -8.8250    0.0000 C   0  0  0  0  0  0  0  0  0  0  0  0
    5.4125   -5.9292    0.0000 C   0  0  0  0  0  0  0  0  0  0  0  0
    7.4000   -6.7542    0.0000 C   0  0  0  0  0  0  0  0  0  0  0  0
    7.7875   -6.0917    0.0000 O   0  0  0  0  0  0  0  0  0  0  0  0
    6.9167   -7.4292    0.0000 C   0  0  0  0  0  0  0  0  0  0  0  0
    4.7000   -6.3417    0.0000 C   0  0  0  0  0  0  0  0  0  0  0  0
    3.2750   -7.1750    0.0000 C   0  0  0  0  0  0  0  0  0  0  0  0
    7.2542   -5.3375    0.0000 C   0  0  0  0  0  0  0  0  0  0  0  0
    5.4167   -8.4125    0.0000 C   0  0  0  0  0  0  0  0  0  0  0  0
    8.4292   -6.5042    0.0000 C   0  0  0  0  0  0  0  0  0  0  0  0
    4.7000   -8.8250    0.0000 C   0  0  0  0  0  0  0  0  0  0  0  0
    2.5542   -8.4125    0.0000 C   0  0  0  0  0  0  0  0  0  0  0  0
    8.4250   -7.3292    0.0000 O   0  0  0  0  0  0  0  0  0  0  0  0
    8.0750   -5.2500    0.0000 O   0  0  0  0  0  0  0  0  0  0  0  0
    1.8375   -8.8292    0.0000 O   0  0  0  0  0  0  0  0  0  0  0  0
    2.5542   -7.5875    0.0000 C   0  0  0  0  0  0  0  0  0  0  0  0
    6.1292   -5.5167    0.0000 C   0  0  0  0  0  0  0  0  0  0  0  0
    3.9875   -6.7542    0.0000 C   0  0  0  0  0  0  0  0  0  0  0  0
    9.1500   -6.1000    0.0000 C   0  0  0  0  0  0  0  0  0  0  0  0
    6.7667   -4.6667    0.0000 C   0  0  0  0  0  0  0  0  0  0  0  0
    9.1542   -5.2750    0.0000 C   0  0  0  0  0  0  0  0  0  0  0  0
    9.8792   -4.0375    0.0000 C   0  0  0  0  0  0  0  0  0  0  0  0
    9.8750   -4.8667    0.0000 C   0  0  0  0  0  0  0  0  0  0  0  0
   10.6000   -3.6292    0.0000 C   0  0  0  0  0  0  0  0  0  0  0  0
  2  1  1  0  0  0  0
  3  6  1  0  0  0  0
  4  1  1  0  0  0  0
  5  3  1  0  0  0  0
  6 13  1  0  0  0  0
  7  4  1  0  0  0  0
  8  5  2  0  0  0  0
  9  1  1  0  0  0  0
 10  2  1  0  0  0  0
  2 11  1  6  0  0  0
 12  4  1  0  0  0  0
 13  9  1  0  0  0  0
 14  3  1  0  0  0  0
  2 15  1  1  0  0  0
 16  7  1  0  0  0  0
 17 11  1  0  0  0  0
 18 16  1  0  0  0  0
 19 23  1  0  0  0  0
 20 17  2  0  0  0  0
 21 15  2  0  0  0  0
 22 19  2  0  0  0  0
 23 14  1  0  0  0  0
  1 24  1  1  0  0  0
  3 25  1  1  0  0  0
 26 17  1  0  0  0  0
 27 15  1  0  0  0  0
 28 26  1  0  0  0  0
 29 30  1  0  0  0  0
 30 28  1  0  0  0  0
 31 29  1  0  0  0  0
 12 10  1  0  0  0  0
  7  6  1  0  0  0  0
  5 18  1  0  0  0  0
 19  8  1  0  0  0  0
M  END
> <#>
62

> <PLATE>
LAT001

> <ROW>
F

> <COL>
9

> <COORD>
F09

> <LATID>
LAT001F09

> <Supplier>
Microsource

> <Suplier_CAT#>
01500343

> <Name>
Hydroxyprogesterone Caproate

> <Concentration_(mM)>
2.5

> <IC50_(µM)>
>100

> <Yeast_Active?>
-

> <Pubchem_CID>
3653

> <Description>
Progestogen

$$$$
