
  -ISIS-  08130814242D

 17 18  0  0  0  0  0  0  0  0999 V2000
    7.5792   -6.7542    0.0000 C   0  0  0  0  0  0  0  0  0  0  0  0
    8.3167   -6.7667    0.0000 N   0  0  0  0  0  0  0  0  0  0  0  0
    7.3292   -7.4667    0.0000 N   0  0  3  0  0  0  0  0  0  0  0  0
    4.4042   -8.3417    0.0000 C   0  0  0  0  0  0  0  0  0  0  0  0
    3.7167   -8.0375    0.0000 N   0  3  0  0  0  0  0  0  0  0  0  0
    8.5542   -7.4750    0.0000 C   0  0  0  0  0  0  0  0  0  0  0  0
    7.9417   -7.9125    0.0000 C   0  0  0  0  0  0  0  0  0  0  0  0
    5.0542   -7.9667    0.0000 O   0  0  0  0  0  0  0  0  0  0  0  0
    6.5917   -7.6125    0.0000 N   0  0  0  0  0  0  0  0  0  0  0  0
    4.5667   -9.0792    0.0000 C   0  0  0  0  0  0  0  0  0  0  0  0
    5.6042   -8.4667    0.0000 C   0  0  0  0  0  0  0  0  0  0  0  0
    6.3542   -8.3167    0.0000 C   0  0  0  0  0  0  0  0  0  0  0  0
    5.3167   -9.1542    0.0000 C   0  0  0  0  0  0  0  0  0  0  0  0
    3.6375   -7.2875    0.0000 O   0  5  0  0  0  0  0  0  0  0  0  0
    3.1125   -8.4750    0.0000 O   0  0  0  0  0  0  0  0  0  0  0  0
    7.1417   -6.1292    0.0000 O   0  0  0  0  0  0  0  0  0  0  0  0
    9.2667   -7.7000    0.0000 O   0  0  0  0  0  0  0  0  0  0  0  0
  2  1  1  0  0  0  0
  3  1  1  0  0  0  0
  4  8  1  0  0  0  0
  5  4  1  0  0  0  0
  6  2  1  0  0  0  0
  7  3  1  0  0  0  0
  8 11  1  0  0  0  0
  9  3  1  0  0  0  0
 10 13  1  0  0  0  0
 11 12  1  0  0  0  0
 12  9  2  0  0  0  0
 13 11  2  0  0  0  0
 14  5  1  0  0  0  0
 15  5  2  0  0  0  0
 16  1  2  0  0  0  0
 17  6  2  0  0  0  0
  7  6  1  0  0  0  0
  4 10  2  0  0  0  0
M  CHG  2   5   1  14  -1
M  END
> <#>
114

> <PLATE>
LAT002

> <ROW>
B

> <COL>
6

> <COORD>
B06

> <LATID>
LAT002B06

> <Supplier>
Microsource

> <Suplier_CAT#>
01500433

> <Name>
Nitrofurantoin

> <Concentration_(mM)>
2.5

> <IC50_(µM)>
23

> <Yeast_Active?>
-

> <Pubchem_CID>
4509

> <Description>
Antibacterial

$$$$
