
  -ISIS-  08130814242D

 26 28  0  0  0  0  0  0  0  0999 V2000
   -0.8500    1.6125    0.0000 S   0  0  3  0  0  0  0  0  0  0  0  0
   -1.5333    1.4708    0.0000 N   0  0  0  0  0  0  0  0  0  0  0  0
   -0.1500    1.7500    0.0000 C   0  0  0  0  0  0  0  0  0  0  0  0
   -1.7500    0.8125    0.0000 C   0  0  0  0  0  0  0  0  0  0  0  0
   -0.7125    0.9333    0.0000 O   0  0  0  0  0  0  0  0  0  0  0  0
   -0.9958    2.2958    0.0000 O   0  0  0  0  0  0  0  0  0  0  0  0
   -0.1708   -0.1292    0.0000 N   0  0  0  0  0  0  0  0  0  0  0  0
   -0.6333    0.3958    0.0000 C   0  0  0  0  0  0  0  0  0  0  0  0
   -1.3125    0.2708    0.0000 C   0  0  0  0  0  0  0  0  0  0  0  0
    0.0500    2.3958    0.0000 C   0  0  0  0  0  0  0  0  0  0  0  0
    0.3042    1.2333    0.0000 C   0  0  0  0  0  0  0  0  0  0  0  0
    0.5042    0.0125    0.0000 C   0  0  0  0  0  0  0  0  0  0  0  0
    0.7292    2.5500    0.0000 C   0  0  0  0  0  0  0  0  0  0  0  0
    0.9667    1.3958    0.0000 C   0  0  0  0  0  0  0  0  0  0  0  0
    1.1875    2.0333    0.0000 C   0  0  0  0  0  0  0  0  0  0  0  0
    1.8292    0.3500    0.0000 C   0  0  0  0  0  0  0  0  0  0  0  0
    0.7042    0.6708    0.0000 C   0  0  0  0  0  0  0  0  0  0  0  0
    0.9875   -0.4875    0.0000 C   0  0  0  0  0  0  0  0  0  0  0  0
    1.6500   -0.3042    0.0000 C   0  0  0  0  0  0  0  0  0  0  0  0
    1.3500    0.8333    0.0000 C   0  0  0  0  0  0  0  0  0  0  0  0
   -1.5333   -0.3667    0.0000 C   0  0  0  0  0  0  0  0  0  0  0  0
   -2.4125    0.6958    0.0000 C   0  0  0  0  0  0  0  0  0  0  0  0
    1.8667    2.1708    0.0000 C   0  0  0  0  0  0  0  0  0  0  0  0
    2.4875    0.5333    0.0000 C   0  0  0  0  0  0  0  0  0  0  0  0
   -2.2125   -0.4875    0.0000 C   0  0  0  0  0  0  0  0  0  0  0  0
   -2.6500    0.0333    0.0000 C   0  0  0  0  0  0  0  0  0  0  0  0
  2  1  1  0  0  0  0
  3  1  1  0  0  0  0
  4  2  1  0  0  0  0
  5  1  2  0  0  0  0
  6  1  2  0  0  0  0
  7  8  2  0  0  0  0
  8  9  1  0  0  0  0
  9  4  2  0  0  0  0
 10  3  2  0  0  0  0
 11  3  1  0  0  0  0
 12  7  1  0  0  0  0
 13 10  1  0  0  0  0
 14 11  2  0  0  0  0
 15 14  1  0  0  0  0
 16 19  2  0  0  0  0
 17 12  1  0  0  0  0
 18 12  2  0  0  0  0
 19 18  1  0  0  0  0
 20 17  2  0  0  0  0
 21  9  1  0  0  0  0
 22  4  1  0  0  0  0
 23 15  1  0  0  0  0
 24 16  1  0  0  0  0
 25 26  1  0  0  0  0
 26 22  2  0  0  0  0
 15 13  2  0  0  0  0
 21 25  2  0  0  0  0
 20 16  1  0  0  0  0
M  END
> <#>
733

> <PLATE>
LAT010

> <ROW>
E

> <COL>
3

> <COORD>
E03

> <LATID>
LAT010E03

> <Supplier>
Chembridge

> <Suplier_CAT#>
5570434

> <Name>
Novel

> <Sec_Name>
174_H09

> <Concentration_(mM)>
2.5

> <IC50_(µM)>
36

> <Yeast_Active?>
-

> <Pubchem_CID>
1369808

$$$$
