
  -ISIS-  08130814242D

 10 10  0  0  0  0  0  0  0  0999 V2000
    5.6911   -3.6744    0.0000 C   0  0  0  0  0  0  0  0  0  0  0  0
    6.5835   -3.6744    0.0000 C   0  0  0  0  0  0  0  0  0  0  0  0
    7.0296   -2.9016    0.0000 C   0  0  0  0  0  0  0  0  0  0  0  0
    7.9219   -2.9016    0.0000 C   0  0  0  0  0  0  0  0  0  0  0  0
    8.3681   -3.6744    0.0000 C   0  0  0  0  0  0  0  0  0  0  0  0
    7.9219   -4.4472    0.0000 C   0  0  0  0  0  0  0  0  0  0  0  0
    7.0296   -4.4472    0.0000 C   0  0  0  0  0  0  0  0  0  0  0  0
    5.2450   -2.9016    0.0000 O   0  0  0  0  0  0  0  0  0  0  0  0
    5.2450   -4.4472    0.0000 O   0  0  0  0  0  0  0  0  0  0  0  0
    6.5835   -2.1289    0.0000 Cl  0  0  0  0  0  0  0  0  0  0  0  0
  1  2  1  0  0  0  0
  2  3  1  0  0  0  0
  3  4  2  0  0  0  0
  4  5  1  0  0  0  0
  5  6  2  0  0  0  0
  6  7  1  0  0  0  0
  2  7  2  0  0  0  0
  1  8  2  0  0  0  0
  1  9  1  0  0  0  0
  3 10  1  0  0  0  0
M  END
> <#>
486

> <PLATE>
LAT007

> <ROW>
F

> <COL>
2

> <COORD>
F02

> <LATID>
LAT007F02

> <Supplier>
Aldrich

> <Suplier_CAT#>
125577

> <Name>
2-Chlorobenzoic Acid

> <Concentration_(mM)>
2.5

> <IC50_(µM)>
>100

> <Yeast_Active?>
-

> <Pubchem_CID>
8374

$$$$
