
  -ISIS-  08130814242D

 23 25  0  0  0  0  0  0  0  0999 V2000
    5.1167   -4.1292    0.0000 C   0  0  0  0  0  0  0  0  0  0  0  0
    5.3292   -3.4750    0.0000 C   0  0  0  0  0  0  0  0  0  0  0  0
    3.9875   -3.7667    0.0000 N   0  0  0  0  0  0  0  0  0  0  0  0
    4.4417   -4.2792    0.0000 N   0  0  0  0  0  0  0  0  0  0  0  0
    4.1917   -3.1125    0.0000 C   0  0  0  0  0  0  0  0  0  0  0  0
    5.5875   -4.6417    0.0000 C   0  0  0  0  0  0  0  0  0  0  0  0
    3.8792   -2.5000    0.0000 C   0  0  3  0  0  0  0  0  0  0  0  0
    3.3000   -2.1292    0.0000 C   0  0  0  0  0  0  0  0  0  0  0  0
    3.9042   -1.8125    0.0000 C   0  0  0  0  0  0  0  0  0  0  0  0
    6.4000   -4.5250    0.0000 N   0  0  0  0  0  0  0  0  0  0  0  0
    7.0417   -5.0625    0.0000 N   0  0  0  0  0  0  0  0  0  0  0  0
    5.3750   -5.2917    0.0000 O   0  0  0  0  0  0  0  0  0  0  0  0
    8.7542   -6.5125    0.0000 C   0  0  0  0  0  0  0  0  0  0  0  0
    8.1875   -6.0292    0.0000 C   0  0  0  0  0  0  0  0  0  0  0  0
    8.3167   -5.2917    0.0000 C   0  0  0  0  0  0  0  0  0  0  0  0
    8.6292   -7.2500    0.0000 C   0  0  0  0  0  0  0  0  0  0  0  0
    7.7417   -4.8042    0.0000 C   0  0  0  0  0  0  0  0  0  0  0  0
    7.9250   -7.5042    0.0000 O   0  0  0  0  0  0  0  0  0  0  0  0
    9.4625   -6.2542    0.0000 C   0  0  0  0  0  0  0  0  0  0  0  0
    9.2042   -7.7292    0.0000 C   0  0  0  0  0  0  0  0  0  0  0  0
    7.3500   -7.0250    0.0000 C   0  0  0  0  0  0  0  0  0  0  0  0
   10.0375   -6.7375    0.0000 C   0  0  0  0  0  0  0  0  0  0  0  0
    9.9125   -7.4792    0.0000 C   0  0  0  0  0  0  0  0  0  0  0  0
  2  1  2  0  0  0  0
  3  4  1  0  0  0  0
  4  1  1  0  0  0  0
  5  2  1  0  0  0  0
  6  1  1  0  0  0  0
  7  5  1  0  0  0  0
  8  7  1  0  0  0  0
  9  7  1  0  0  0  0
 10  6  1  0  0  0  0
 11 10  1  0  0  0  0
 12  6  2  0  0  0  0
 13 14  1  0  0  0  0
 14 15  2  0  0  0  0
 15 17  1  0  0  0  0
 16 13  1  0  0  0  0
 17 11  2  0  0  0  0
 18 16  1  0  0  0  0
 19 13  2  0  0  0  0
 20 16  2  0  0  0  0
 21 18  1  0  0  0  0
 22 19  1  0  0  0  0
 23 22  2  0  0  0  0
  5  3  2  0  0  0  0
  8  9  1  0  0  0  0
 20 23  1  0  0  0  0
M  END
> <#>
1024

> <PLATE>
LAT013

> <ROW>
H

> <COL>
9

> <COORD>
H09

> <LATID>
LAT013H09

> <Supplier>
Chembridge

> <Suplier_CAT#>
5787345

> <Name>
Novel

> <Sec_Name>
249_E07

> <Concentration_(mM)>
2.5

> <IC50_(µM)>
68

> <Yeast_Active?>
-

> <Pubchem_CID>
NULL

$$$$
