
  -ISIS-  08130814242D

 15 17  0  0  0  0  0  0  0  0999 V2000
    4.0292   -1.5167    0.0000 N   0  0  0  0  0  0  0  0  0  0  0  0
    3.3292   -1.5167    0.0000 C   0  0  0  0  0  0  0  0  0  0  0  0
    4.2417   -2.1875    0.0000 C   0  0  0  0  0  0  0  0  0  0  0  0
    3.1167   -2.1875    0.0000 N   0  0  3  0  0  0  0  0  0  0  0  0
    3.6792   -2.5917    0.0000 C   0  0  0  0  0  0  0  0  0  0  0  0
    4.9042   -2.4000    0.0000 C   0  0  0  0  0  0  0  0  0  0  0  0
    2.7667   -1.1167    0.0000 S   0  0  0  0  0  0  0  0  0  0  0  0
    2.4167   -2.1875    0.0000 C   0  0  0  0  0  0  0  0  0  0  0  0
    2.2042   -1.5167    0.0000 C   0  0  0  0  0  0  0  0  0  0  0  0
    5.4250   -1.9375    0.0000 C   0  0  0  0  0  0  0  0  0  0  0  0
    5.2792   -1.2542    0.0000 Br  0  0  0  0  0  0  0  0  0  0  0  0
    5.0500   -3.0792    0.0000 C   0  0  0  0  0  0  0  0  0  0  0  0
    6.0875   -2.1500    0.0000 C   0  0  0  0  0  0  0  0  0  0  0  0
    5.7167   -3.3000    0.0000 C   0  0  0  0  0  0  0  0  0  0  0  0
    6.2292   -2.8292    0.0000 C   0  0  0  0  0  0  0  0  0  0  0  0
  2  1  2  0  0  0  0
  3  1  1  0  0  0  0
  4  2  1  0  0  0  0
  5  3  2  0  0  0  0
  6  3  1  0  0  0  0
  7  2  1  0  0  0  0
  8  4  1  0  0  0  0
  9  7  1  0  0  0  0
 10  6  2  0  0  0  0
 11 10  1  0  0  0  0
 12  6  1  0  0  0  0
 13 10  1  0  0  0  0
 14 12  2  0  0  0  0
 15 14  1  0  0  0  0
  4  5  1  0  0  0  0
  9  8  2  0  0  0  0
 15 13  2  0  0  0  0
M  END
> <#>
917

> <PLATE>
LAT012

> <ROW>
E

> <COL>
6

> <COORD>
E06

> <LATID>
LAT012E06

> <Supplier>
Chembridge

> <Suplier_CAT#>
5691484

> <Name>
Novel

> <Sec_Name>
221_B03

> <Concentration_(mM)>
2.5

> <IC50_(µM)>
62

> <Yeast_Active?>
-

> <Pubchem_CID>
868201

$$$$
