
  -ISIS-  08130814242D

 34 36  0  0  0  0  0  0  0  0999 V2000
   -2.6934    2.6178    0.0000 C   0  0  0  0  0  0  0  0  0  0  0  0
   -2.6934    1.3678    0.0000 C   0  0  2  0  0  0  0  0  0  0  0  0
   -3.7759    0.7428    0.0000 C   0  0  2  0  0  0  0  0  0  0  0  0
   -3.7759   -0.5072    0.0000 C   0  0  1  0  0  0  0  0  0  0  0  0
   -2.6934   -1.1322    0.0000 C   0  0  2  0  0  0  0  0  0  0  0  0
   -1.6109   -0.5072    0.0000 C   0  0  2  0  0  0  0  0  0  0  0  0
   -1.6109    0.7428    0.0000 O   0  0  0  0  0  0  0  0  0  0  0  0
   -0.5283   -1.1322    0.0000 O   0  0  0  0  0  0  0  0  0  0  0  0
    0.5542   -0.5072    0.0000 C   0  0  1  0  0  0  0  0  0  0  0  0
    0.6849    0.7359    0.0000 C   0  0  1  0  0  0  0  0  0  0  0  0
    1.9075    0.9958    0.0000 C   0  0  2  0  0  0  0  0  0  0  0  0
    2.5325   -0.0867    0.0000 O   0  0  0  0  0  0  0  0  0  0  0  0
    1.6961   -1.0157    0.0000 C   0  0  2  0  0  0  0  0  0  0  0  0
    1.0711   -2.0982    0.0000 C   0  0  0  0  0  0  0  0  0  0  0  0
    1.6961   -3.1807    0.0000 O   0  0  0  0  0  0  0  0  0  0  0  0
    2.7074   -1.7504    0.0000 O   0  0  0  0  0  0  0  0  0  0  0  0
    3.8493   -1.2420    0.0000 C   0  0  2  0  0  0  0  0  0  0  0  0
    4.8606   -1.9767    0.0000 C   0  0  1  0  0  0  0  0  0  0  0  0
    6.0025   -1.4683    0.0000 C   0  0  2  0  0  0  0  0  0  0  0  0
    6.1332   -0.2251    0.0000 C   0  0  1  0  0  0  0  0  0  0  0  0
    5.1219    0.5096    0.0000 C   0  0  2  0  0  0  0  0  0  0  0  0
    3.9800    0.0012    0.0000 O   0  0  0  0  0  0  0  0  0  0  0  0
    5.2526    1.7528    0.0000 C   0  0  0  0  0  0  0  0  0  0  0  0
    6.3945    2.2612    0.0000 O   0  0  0  0  0  0  0  0  0  0  0  0
    7.2751    0.2833    0.0000 O   0  0  0  0  0  0  0  0  0  0  0  0
    7.0138   -2.2030    0.0000 O   0  0  0  0  0  0  0  0  0  0  0  0
    4.7299   -3.2198    0.0000 O   0  0  0  0  0  0  0  0  0  0  0  0
    2.4160    2.1377    0.0000 C   0  0  0  0  0  0  0  0  0  0  0  0
    1.6812    3.1490    0.0000 O   0  0  0  0  0  0  0  0  0  0  0  0
   -0.2441    1.5723    0.0000 O   0  0  0  0  0  0  0  0  0  0  0  0
   -2.6934   -2.3822    0.0000 O   0  0  0  0  0  0  0  0  0  0  0  0
   -4.8585   -1.1322    0.0000 O   0  0  0  0  0  0  0  0  0  0  0  0
   -4.8585    1.3678    0.0000 O   0  0  0  0  0  0  0  0  0  0  0  0
   -3.7759    3.2428    0.0000 O   0  0  0  0  0  0  0  0  0  0  0  0
  2  1  1  1  0  0  0
  2  3  1  0  0  0  0
  3  4  1  0  0  0  0
  4  5  1  0  0  0  0
  5  6  1  0  0  0  0
  6  7  1  0  0  0  0
  2  7  1  0  0  0  0
  6  8  1  6  0  0  0
  9  8  1  1  0  0  0
  9 10  1  0  0  0  0
 10 11  1  0  0  0  0
 11 12  1  0  0  0  0
 12 13  1  0  0  0  0
  9 13  1  0  0  0  0
 13 14  1  6  0  0  0
 14 15  1  0  0  0  0
 13 16  1  1  0  0  0
 17 16  1  1  0  0  0
 17 18  1  0  0  0  0
 18 19  1  0  0  0  0
 19 20  1  0  0  0  0
 20 21  1  0  0  0  0
 21 22  1  0  0  0  0
 17 22  1  0  0  0  0
 21 23  1  6  0  0  0
 23 24  1  0  0  0  0
 20 25  1  1  0  0  0
 19 26  1  6  0  0  0
 18 27  1  1  0  0  0
 11 28  1  1  0  0  0
 28 29  1  0  0  0  0
 10 30  1  6  0  0  0
  5 31  1  6  0  0  0
  4 32  1  1  0  0  0
  3 33  1  6  0  0  0
  1 34  1  0  0  0  0
M  END
> <#>
415

> <PLATE>
LAT006

> <ROW>
G

> <COL>
3

> <COORD>
G03

> <LATID>
LAT006G03

> <Supplier>
Nutirional Biochemicals

> <Suplier_CAT#>
Melezitose

> <Name>
D(+)-Melezitose

> <Concentration_(mM)>
2.5

> <IC50_(µM)>
inactive

> <Yeast_Active?>
-

> <Pubchem_CID>
92817

$$$$
