
  -ISIS-  08130814242D

 16 17  0  0  0  0  0  0  0  0999 V2000
   10.2101   -2.7577    0.0000 C   0  0  0  0  0  0  0  0  0  0  0  0
    9.3737   -3.6866    0.0000 C   0  0  3  0  0  0  0  0  0  0  0  0
    8.7487   -4.7691    0.0000 C   0  0  0  0  0  0  0  0  0  0  0  0
    7.5260   -4.5092    0.0000 O   0  0  0  0  0  0  0  0  0  0  0  0
    7.3954   -3.2661    0.0000 N   0  0  3  0  0  0  0  0  0  0  0  0
    8.5373   -2.7577    0.0000 C   0  0  0  0  0  0  0  0  0  0  0  0
    8.7972   -1.5350    0.0000 O   0  0  0  0  0  0  0  0  0  0  0  0
    6.3129   -2.6411    0.0000 C   0  0  0  0  0  0  0  0  0  0  0  0
    5.2303   -3.2661    0.0000 C   0  0  0  0  0  0  0  0  0  0  0  0
    5.2303   -4.5161    0.0000 C   0  0  0  0  0  0  0  0  0  0  0  0
    4.1478   -5.1411    0.0000 C   0  0  0  0  0  0  0  0  0  0  0  0
    3.0653   -4.5161    0.0000 C   0  0  0  0  0  0  0  0  0  0  0  0
    3.0653   -3.2661    0.0000 C   0  0  0  0  0  0  0  0  0  0  0  0
    4.1478   -2.6411    0.0000 C   0  0  0  0  0  0  0  0  0  0  0  0
    4.1478   -1.3911    0.0000 Cl  0  0  0  0  0  0  0  0  0  0  0  0
   10.3850   -4.4213    0.0000 C   0  0  0  0  0  0  0  0  0  0  0  0
  1  2  1  0  0  0  0
  2  3  1  0  0  0  0
  3  4  1  0  0  0  0
  4  5  1  0  0  0  0
  5  6  1  0  0  0  0
  2  6  1  0  0  0  0
  6  7  2  0  0  0  0
  5  8  1  0  0  0  0
  8  9  1  0  0  0  0
  9 10  2  0  0  0  0
 10 11  1  0  0  0  0
 11 12  2  0  0  0  0
 12 13  1  0  0  0  0
 13 14  2  0  0  0  0
  9 14  1  0  0  0  0
 14 15  1  0  0  0  0
  2 16  1  0  0  0  0
M  END
> <#>
336

> <PLATE>
LAT005

> <ROW>
H

> <COL>
3

> <COORD>
H03

> <LATID>
LAT005H03

> <Supplier>
Suppelco

> <Suplier_CAT#>
46120

> <Name>
Clomazone

> <Concentration_(mM)>
2.5

> <IC50_(µM)>
>100

> <Yeast_Active?>
-

> <Pubchem_CID>
54778

> <Description>
Herbicide

> <Comment>
Tagets Caotenoid Biosynthesis

$$$$
