
  -ISIS-  08130814242D

 25 27  0  0  0  0  0  0  0  0999 V2000
    0.8042   -0.7875    0.0000 N   0  0  3  0  0  0  0  0  0  0  0  0
    1.4042   -1.4500    0.0000 C   0  0  0  0  0  0  0  0  0  0  0  0
    1.2500   -0.0292    0.0000 C   0  0  0  0  0  0  0  0  0  0  0  0
    2.2042   -1.0667    0.0000 S   0  0  0  0  0  0  0  0  0  0  0  0
    2.1042   -0.2292    0.0000 C   0  0  0  0  0  0  0  0  0  0  0  0
   -0.0708   -0.7875    0.0000 C   0  0  0  0  0  0  0  0  0  0  0  0
    2.7875    0.3500    0.0000 C   0  0  0  0  0  0  0  0  0  0  0  0
    1.2667   -2.3292    0.0000 O   0  0  0  0  0  0  0  0  0  0  0  0
    0.8875    0.7958    0.0000 O   0  0  0  0  0  0  0  0  0  0  0  0
   -0.5125   -0.0292    0.0000 N   0  0  0  0  0  0  0  0  0  0  0  0
    2.6292    1.2125    0.0000 C   0  0  0  0  0  0  0  0  0  0  0  0
    3.3042    1.7500    0.0000 C   0  0  0  0  0  0  0  0  0  0  0  0
   -1.3958   -0.0292    0.0000 C   0  0  0  0  0  0  0  0  0  0  0  0
   -3.1500   -0.0292    0.0000 C   0  0  0  0  0  0  0  0  0  0  0  0
    3.1667    2.6125    0.0000 C   0  0  0  0  0  0  0  0  0  0  0  0
   -4.0208   -0.0292    0.0000 Cl  0  0  0  0  0  0  0  0  0  0  0  0
   -1.8333   -0.7875    0.0000 C   0  0  0  0  0  0  0  0  0  0  0  0
   -1.8333    0.7333    0.0000 C   0  0  0  0  0  0  0  0  0  0  0  0
   -2.7125   -0.7875    0.0000 C   0  0  0  0  0  0  0  0  0  0  0  0
   -2.7125    0.7333    0.0000 C   0  0  0  0  0  0  0  0  0  0  0  0
    3.8500    3.1708    0.0000 C   0  0  0  0  0  0  0  0  0  0  0  0
    2.3292    2.9333    0.0000 C   0  0  0  0  0  0  0  0  0  0  0  0
    2.1875    3.8125    0.0000 C   0  0  0  0  0  0  0  0  0  0  0  0
    3.7042    4.0042    0.0000 C   0  0  0  0  0  0  0  0  0  0  0  0
    2.8875    4.3667    0.0000 C   0  0  0  0  0  0  0  0  0  0  0  0
  2  1  1  0  0  0  0
  3  1  1  0  0  0  0
  4  2  1  0  0  0  0
  5  3  1  0  0  0  0
  6  1  1  0  0  0  0
  7  5  2  0  0  0  0
  8  2  2  0  0  0  0
  9  3  2  0  0  0  0
 10  6  1  0  0  0  0
 11  7  1  0  0  0  0
 12 11  2  0  0  0  0
 13 10  1  0  0  0  0
 14 20  2  0  0  0  0
 15 12  1  0  0  0  0
 16 14  1  0  0  0  0
 17 13  1  0  0  0  0
 18 13  2  0  0  0  0
 19 17  2  0  0  0  0
 20 18  1  0  0  0  0
 21 15  1  0  0  0  0
 22 15  2  0  0  0  0
 23 22  1  0  0  0  0
 24 21  2  0  0  0  0
 25 23  2  0  0  0  0
  5  4  1  0  0  0  0
 14 19  1  0  0  0  0
 25 24  1  0  0  0  0
M  END
> <#>
745

> <PLATE>
LAT010

> <ROW>
A

> <COL>
5

> <COORD>
A05

> <LATID>
LAT010A05

> <Supplier>
Chembridge

> <Suplier_CAT#>
5583359

> <Name>
Novel

> <Sec_Name>
182_G03

> <Concentration_(mM)>
2.5

> <IC50_(µM)>
40

> <Yeast_Active?>
-

> <Pubchem_CID>
2252010

$$$$
