
  -ISIS-  08130814242D

 21 23  0  0  0  0  0  0  0  0999 V2000
    0.1667   -0.7000    0.0000 C   0  0  0  0  0  0  0  0  0  0  0  0
    0.1667   -0.0292    0.0000 C   0  0  0  0  0  0  0  0  0  0  0  0
   -0.4125   -1.0292    0.0000 S   0  0  0  0  0  0  0  0  0  0  0  0
   -0.9958   -0.0292    0.0000 C   0  0  0  0  0  0  0  0  0  0  0  0
   -0.9958   -0.7000    0.0000 C   0  0  0  0  0  0  0  0  0  0  0  0
    0.7500    0.2958    0.0000 C   0  0  0  0  0  0  0  0  0  0  0  0
    0.7500   -1.0292    0.0000 N   0  0  0  0  0  0  0  0  0  0  0  0
    2.0875    1.1500    0.0000 C   0  0  0  0  0  0  0  0  0  0  0  0
    1.3292   -0.0292    0.0000 N   0  0  0  0  0  0  0  0  0  0  0  0
    0.7500    0.9833    0.0000 N   0  0  0  0  0  0  0  0  0  0  0  0
    1.3375    1.3208    0.0000 N   0  0  0  0  0  0  0  0  0  0  0  0
    1.3292   -0.7000    0.0000 C   0  0  0  0  0  0  0  0  0  0  0  0
    2.6500    1.6333    0.0000 S   0  0  0  0  0  0  0  0  0  0  0  0
    2.1917    0.4708    0.0000 N   0  0  0  0  0  0  0  0  0  0  0  0
    3.2292    0.2708    0.0000 C   0  0  0  0  0  0  0  0  0  0  0  0
    3.7667   -0.0667    0.0000 C   0  0  0  0  0  0  0  0  0  0  0  0
   -1.5708    0.2958    0.0000 C   0  0  0  0  0  0  0  0  0  0  0  0
   -1.5708   -1.0292    0.0000 C   0  0  0  0  0  0  0  0  0  0  0  0
    2.6875   -0.0042    0.0000 C   0  0  0  0  0  0  0  0  0  0  0  0
   -2.1500   -0.0292    0.0000 C   0  0  0  0  0  0  0  0  0  0  0  0
   -2.1500   -0.7000    0.0000 C   0  0  0  0  0  0  0  0  0  0  0  0
  2  1  2  0  0  0  0
  3  1  1  0  0  0  0
  4  2  1  0  0  0  0
  5  3  1  0  0  0  0
  6  2  1  0  0  0  0
  7  1  1  0  0  0  0
  8 11  1  0  0  0  0
  9 12  1  0  0  0  0
 10  6  1  0  0  0  0
 11 10  1  0  0  0  0
 12  7  2  0  0  0  0
 13  8  2  0  0  0  0
 14  8  1  0  0  0  0
 15 19  1  0  0  0  0
 16 15  2  0  0  0  0
 17  4  1  0  0  0  0
 18  5  1  0  0  0  0
 19 14  1  0  0  0  0
 20 17  1  0  0  0  0
 21 18  1  0  0  0  0
  5  4  2  0  0  0  0
  9  6  2  0  0  0  0
 21 20  1  0  0  0  0
M  END
> <#>
940

> <PLATE>
LAT012

> <ROW>
D

> <COL>
9

> <COORD>
D09

> <LATID>
LAT012D09

> <Supplier>
Chembridge

> <Suplier_CAT#>
5728179

> <Name>
Novel

> <Sec_Name>
231_A04

> <Concentration_(mM)>
2.5

> <IC50_(µM)>
67

> <Yeast_Active?>
-

> <Pubchem_CID>
1630151

$$$$
