
  -ISIS-  08130814242D

 24 25  0  0  0  0  0  0  0  0999 V2000
   -0.0208   -0.7292    0.0000 C   0  0  0  0  0  0  0  0  0  0  0  0
   -0.7333   -0.3042    0.0000 C   0  0  0  0  0  0  0  0  0  0  0  0
    2.1042   -0.3167    0.0000 C   0  0  0  0  0  0  0  0  0  0  0  0
   -1.4500   -0.7167    0.0000 C   0  0  0  0  0  0  0  0  0  0  0  0
    0.6875   -0.3167    0.0000 O   0  0  0  0  0  0  0  0  0  0  0  0
    2.8167   -0.7375    0.0000 N   0  0  0  0  0  0  0  0  0  0  0  0
    4.9667   -1.9667    0.0000 C   0  0  0  0  0  0  0  0  0  0  0  0
   -0.0208   -1.5542    0.0000 C   0  0  0  0  0  0  0  0  0  0  0  0
    5.6792   -2.3875    0.0000 N   0  0  3  0  0  0  0  0  0  0  0  0
    2.1000    0.4958    0.0000 O   0  0  0  0  0  0  0  0  0  0  0  0
    4.9667   -1.1500    0.0000 C   0  0  0  0  0  0  0  0  0  0  0  0
    4.2500   -2.3875    0.0000 C   0  0  0  0  0  0  0  0  0  0  0  0
    1.4000   -0.7375    0.0000 C   0  0  0  0  0  0  0  0  0  0  0  0
    3.5375   -1.1500    0.0000 C   0  0  0  0  0  0  0  0  0  0  0  0
   -0.7333    0.5000    0.0000 C   0  0  3  0  0  0  0  0  0  0  0  0
   -1.4500   -1.5500    0.0000 C   0  0  0  0  0  0  0  0  0  0  0  0
   -0.7458   -1.9667    0.0000 C   0  0  0  0  0  0  0  0  0  0  0  0
    4.2500   -0.7292    0.0000 C   0  0  0  0  0  0  0  0  0  0  0  0
    3.5375   -1.9667    0.0000 C   0  0  0  0  0  0  0  0  0  0  0  0
    5.6792   -3.2042    0.0000 C   0  0  0  0  0  0  0  0  0  0  0  0
    6.4000   -1.9667    0.0000 C   0  0  0  0  0  0  0  0  0  0  0  0
   -0.0125    0.9208    0.0000 C   0  0  0  0  0  0  0  0  0  0  0  0
   -1.4500    0.9208    0.0000 C   0  0  0  0  0  0  0  0  0  0  0  0
   -0.7500   -2.8000    0.0000 C   0  0  0  0  0  0  0  0  0  0  0  0
  2  1  1  0  0  0  0
  3 13  1  0  0  0  0
  4  2  2  0  0  0  0
  5  1  1  0  0  0  0
  6  3  1  0  0  0  0
  7 12  2  0  0  0  0
  8  1  2  0  0  0  0
  9  7  1  0  0  0  0
 10  3  2  0  0  0  0
 11 18  2  0  0  0  0
 12 19  1  0  0  0  0
 13  5  1  0  0  0  0
 14  6  1  0  0  0  0
 15  2  1  0  0  0  0
 16 17  2  0  0  0  0
 17  8  1  0  0  0  0
 18 14  1  0  0  0  0
 19 14  2  0  0  0  0
 20  9  1  0  0  0  0
 21  9  1  0  0  0  0
 22 15  1  0  0  0  0
 23 15  1  0  0  0  0
 24 17  1  0  0  0  0
  4 16  1  0  0  0  0
 11  7  1  0  0  0  0
M  END
> <#>
824

> <PLATE>
LAT011

> <ROW>
H

> <COL>
4

> <COORD>
H04

> <LATID>
LAT011H04

> <Supplier>
Chembridge

> <Suplier_CAT#>
5629981

> <Name>
Novel

> <Sec_Name>
191_G10

> <Concentration_(mM)>
2.5

> <IC50_(µM)>
>100

> <Yeast_Active?>
-

> <Pubchem_CID>
680458

$$$$
