
  -ISIS-  08130814242D

 12 13  0  0  0  0  0  0  0  0999 V2000
    6.7241   -4.4698    0.0000 N   0  0  0  0  0  0  0  0  0  0  0  0
    5.6416   -3.8448    0.0000 C   0  0  0  0  0  0  0  0  0  0  0  0
    5.6416   -2.5948    0.0000 C   0  0  0  0  0  0  0  0  0  0  0  0
    6.7241   -1.9698    0.0000 C   0  0  0  0  0  0  0  0  0  0  0  0
    7.8066   -2.5948    0.0000 C   0  0  0  0  0  0  0  0  0  0  0  0
    8.8892   -1.9698    0.0000 C   0  0  0  0  0  0  0  0  0  0  0  0
    9.9717   -2.5948    0.0000 C   0  0  0  0  0  0  0  0  0  0  0  0
    9.9717   -3.8448    0.0000 C   0  0  0  0  0  0  0  0  0  0  0  0
    8.8892   -4.4698    0.0000 C   0  0  0  0  0  0  0  0  0  0  0  0
    7.8066   -3.8448    0.0000 C   0  0  0  0  0  0  0  0  0  0  0  0
    4.5590   -4.4698    0.0000 C   0  0  0  0  0  0  0  0  0  0  0  0
    3.4765   -3.8448    0.0000 O   0  0  0  0  0  0  0  0  0  0  0  0
  1  2  1  0  0  0  0
  2  3  2  0  0  0  0
  3  4  1  0  0  0  0
  4  5  2  0  0  0  0
  5  6  1  0  0  0  0
  6  7  2  0  0  0  0
  7  8  1  0  0  0  0
  8  9  2  0  0  0  0
  9 10  1  0  0  0  0
  1 10  2  0  0  0  0
  5 10  1  0  0  0  0
 11 12  2  0  0  0  0
  2 11  1  0  0  0  0
M  END
> <#>
331

> <PLATE>
LAT005

> <ROW>
C

> <COL>
3

> <COORD>
C03

> <LATID>
LAT005C03

> <Supplier>
Aldrich

> <Suplier_CAT#>
334251

> <Name>
2-Quinolinecarboxaldehyde

> <Concentration_(mM)>
2.5

> <IC50_(µM)>
>100

> <Yeast_Active?>
-

> <Pubchem_CID>
79619

$$$$
