
  -ISIS-  08130814242D

  6  5  0  0  0  0  0  0  0  0999 V2000
    7.5475   -3.4679    0.0000 C   0  0  0  0  0  0  0  0  0  0  0  0
    6.7747   -3.9140    0.0000 C   0  0  0  0  0  0  0  0  0  0  0  0
    7.5475   -2.5756    0.0000 O   0  0  0  0  0  0  0  0  0  0  0  0
    8.3202   -3.9140    0.0000 O   0  0  0  0  0  0  0  0  0  0  0  0
    6.0019   -3.4679    0.0000 O   0  0  0  0  0  0  0  0  0  0  0  0
    5.2292   -3.9140    0.0000 N   0  0  0  0  0  0  0  0  0  0  0  0
  1  2  1  0  0  0  0
  1  3  2  0  0  0  0
  1  4  1  0  0  0  0
  5  6  1  0  0  0  0
  2  5  1  0  0  0  0
M  END
> <#>
498

> <PLATE>
LAT007

> <ROW>
B

> <COL>
4

> <COORD>
B04

> <LATID>
LAT007B04

> <Supplier>
Sigma

> <Suplier_CAT#>
A-4508

> <Name>
(Aminooxy)Acetic Acid

> <Concentration_(mM)>
2.5

> <IC50_(µM)>
inactive

> <Yeast_Active?>
-

> <Pubchem_CID>
286

$$$$
