
  -ISIS-  08130814242D

 23 25  0  0  0  0  0  0  0  0999 V2000
   -1.2500   -0.7792    0.0000 S   0  0  3  0  0  0  0  0  0  0  0  0
   -1.7500   -1.2500    0.0000 N   0  0  3  0  0  0  0  0  0  0  0  0
   -1.7708   -1.9375    0.0000 C   0  0  3  0  0  0  0  0  0  0  0  0
    0.6167   -1.9875    0.0000 N   0  3  0  0  0  0  0  0  0  0  0  0
   -1.1833   -2.3000    0.0000 C   0  0  0  0  0  0  0  0  0  0  0  0
    0.0042   -2.3292    0.0000 C   0  0  0  0  0  0  0  0  0  0  0  0
   -1.4208   -0.1042    0.0000 O   0  0  0  0  0  0  0  0  0  0  0  0
   -0.5958   -0.9667    0.0000 O   0  0  0  0  0  0  0  0  0  0  0  0
   -2.3708   -2.2792    0.0000 S   0  0  0  0  0  0  0  0  0  0  0  0
   -0.8958   -0.1875    0.0000 C   0  0  0  0  0  0  0  0  0  0  0  0
   -0.5708   -1.9667    0.0000 C   0  0  0  0  0  0  0  0  0  0  0  0
    1.2042   -2.3500    0.0000 O   0  5  0  0  0  0  0  0  0  0  0  0
   -2.9458   -1.2167    0.0000 C   0  0  0  0  0  0  0  0  0  0  0  0
    0.6292   -1.3000    0.0000 O   0  0  0  0  0  0  0  0  0  0  0  0
   -2.9625   -1.9167    0.0000 C   0  0  0  0  0  0  0  0  0  0  0  0
   -1.1958   -2.9875    0.0000 C   0  0  0  0  0  0  0  0  0  0  0  0
    0.0000   -3.0167    0.0000 C   0  0  0  0  0  0  0  0  0  0  0  0
   -0.6000   -3.3500    0.0000 C   0  0  0  0  0  0  0  0  0  0  0  0
   -1.2208    0.4125    0.0000 C   0  0  0  0  0  0  0  0  0  0  0  0
   -0.2000   -0.2000    0.0000 C   0  0  0  0  0  0  0  0  0  0  0  0
   -0.8625    1.0000    0.0000 C   0  0  0  0  0  0  0  0  0  0  0  0
    0.1500    0.3708    0.0000 C   0  0  0  0  0  0  0  0  0  0  0  0
   -0.1708    0.9833    0.0000 C   0  0  0  0  0  0  0  0  0  0  0  0
  2  1  1  0  0  0  0
  3  2  1  0  0  0  0
  4  6  1  0  0  0  0
  5  3  1  0  0  0  0
  6 11  2  0  0  0  0
  7  1  2  0  0  0  0
  8  1  2  0  0  0  0
  9  3  1  0  0  0  0
 10  1  1  0  0  0  0
 11  5  1  0  0  0  0
 12  4  1  0  0  0  0
 13  2  1  0  0  0  0
 14  4  2  0  0  0  0
 15 13  1  0  0  0  0
 16  5  2  0  0  0  0
 17 18  2  0  0  0  0
 18 16  1  0  0  0  0
 19 10  1  0  0  0  0
 20 10  2  0  0  0  0
 21 19  2  0  0  0  0
 22 20  1  0  0  0  0
 23 22  2  0  0  0  0
  9 15  1  0  0  0  0
 23 21  1  0  0  0  0
 17  6  1  0  0  0  0
M  CHG  2   4   1  12  -1
M  END
> <#>
852

> <PLATE>
LAT011

> <ROW>
D

> <COL>
8

> <COORD>
D08

> <LATID>
LAT011D08

> <Supplier>
Chembridge

> <Suplier_CAT#>
5651337

> <Name>
Novel

> <Sec_Name>
199_A06

> <Concentration_(mM)>
2.5

> <IC50_(µM)>
>100

> <Yeast_Active?>
-

> <Pubchem_CID>
1111424

$$$$
