
  -ISIS-  08130814242D

 31 33  0  0  0  0  0  0  0  0999 V2000
    6.7097   -2.2930    0.0000 C   0  0  0  0  0  0  0  0  0  0  0  0
    0.2146   -2.3037    0.0000 C   0  0  0  0  0  0  0  0  0  0  0  0
    4.5416    1.4553    0.0000 C   0  0  0  0  0  0  0  0  0  0  0  0
    6.7118   -3.5430    0.0000 C   0  0  0  0  0  0  0  0  0  0  0  0
    7.7943   -4.1680    0.0000 O   0  0  0  0  0  0  0  0  0  0  0  0
    5.6303   -4.1697    0.0000 C   0  0  0  0  0  0  0  0  0  0  0  0
    4.5447   -3.5465    0.0000 C   0  0  0  0  0  0  0  0  0  0  0  0
    4.5447   -2.2965    0.0000 C   0  0  0  0  0  0  0  0  0  0  0  0
    5.6262   -1.6697    0.0000 C   0  0  0  0  0  0  0  0  0  0  0  0
    3.4621   -1.6715    0.0000 C   0  0  0  0  0  0  0  0  0  0  0  0
    2.3796   -2.2965    0.0000 C   0  0  0  0  0  0  0  0  0  0  0  0
    1.2971   -1.6751    0.0000 C   0  0  0  0  0  0  0  0  0  0  0  0
    2.3827   -3.5483    0.0000 C   0  0  0  0  0  0  0  0  0  0  0  0
    1.3012   -4.1751    0.0000 C   0  0  0  0  0  0  0  0  0  0  0  0
    0.2182   -3.5528    0.0000 C   0  0  0  0  0  0  0  0  0  0  0  0
   -0.8644   -4.1778    0.0000 O   0  0  0  0  0  0  0  0  0  0  0  0
    3.4621   -0.4215    0.0000 C   0  0  0  0  0  0  0  0  0  0  0  0
    4.5447    0.2035    0.0000 C   0  0  0  0  0  0  0  0  0  0  0  0
    2.3786    0.2017    0.0000 C   0  0  0  0  0  0  0  0  0  0  0  0
    2.3765    1.4517    0.0000 C   0  0  0  0  0  0  0  0  0  0  0  0
    3.4580    2.0785    0.0000 C   0  0  0  0  0  0  0  0  0  0  0  0
    3.4580    3.3285    0.0000 O   0  0  0  0  0  0  0  0  0  0  0  0
    7.7923   -1.6680    0.0000 C   0  0  0  0  0  0  0  0  0  0  0  0
    7.7923   -0.4180    0.0000 O   0  0  0  0  0  0  0  0  0  0  0  0
    8.8748   -2.2930    0.0000 O   0  0  0  0  0  0  0  0  0  0  0  0
   -0.8680   -1.6787    0.0000 C   0  0  0  0  0  0  0  0  0  0  0  0
   -0.8680   -0.4287    0.0000 O   0  0  0  0  0  0  0  0  0  0  0  0
   -1.9505   -2.3037    0.0000 O   0  0  0  0  0  0  0  0  0  0  0  0
    5.6241    2.0803    0.0000 C   0  0  0  0  0  0  0  0  0  0  0  0
    5.6241    3.3303    0.0000 O   0  0  0  0  0  0  0  0  0  0  0  0
    6.7066    1.4553    0.0000 O   0  0  0  0  0  0  0  0  0  0  0  0
  1  4  1  0  0  0  0
  4  5  1  0  0  0  0
  4  6  2  0  0  0  0
  6  7  1  0  0  0  0
  7  8  2  0  0  0  0
  8  9  1  0  0  0  0
  1  9  2  0  0  0  0
  8 10  1  0  0  0  0
 10 11  1  0  0  0  0
 11 12  2  0  0  0  0
  2 12  1  0  0  0  0
 11 13  1  0  0  0  0
 13 14  2  0  0  0  0
 14 15  1  0  0  0  0
  2 15  2  0  0  0  0
 15 16  1  0  0  0  0
 10 17  2  0  0  0  0
 17 18  1  0  0  0  0
  3 18  2  0  0  0  0
 17 19  1  0  0  0  0
 19 20  2  0  0  0  0
 20 21  1  0  0  0  0
  3 21  1  0  0  0  0
 21 22  2  0  0  0  0
 23 24  2  0  0  0  0
 23 25  1  0  0  0  0
  1 23  1  0  0  0  0
 26 27  2  0  0  0  0
 26 28  1  0  0  0  0
  2 26  1  0  0  0  0
 29 30  2  0  0  0  0
 29 31  1  0  0  0  0
  3 29  1  0  0  0  0
M  END
> <#>
439

> <PLATE>
LAT006

> <ROW>
G

> <COL>
6

> <COORD>
G06

> <LATID>
LAT006G06

> <Supplier>
Sigma

> <Suplier_CAT#>
A-1895

> <Name>
Aurintricarboxylic Acid

> <Concentration_(mM)>
2.5

> <IC50_(µM)>
inactive

> <Yeast_Active?>
-

> <Pubchem_CID>
2259

$$$$
