
  -ISIS-  08130814242D

 23 25  0  0  0  0  0  0  0  0999 V2000
   -0.5500   -0.7875    0.0000 N   0  0  3  0  0  0  0  0  0  0  0  0
   -0.5500   -1.8000    0.0000 C   0  0  0  0  0  0  0  0  0  0  0  0
   -1.4125   -0.3000    0.0000 C   0  0  0  0  0  0  0  0  0  0  0  0
    0.3000   -0.2792    0.0000 C   0  0  0  0  0  0  0  0  0  0  0  0
    0.3000   -2.3042    0.0000 C   0  0  0  0  0  0  0  0  0  0  0  0
   -2.2625   -0.7875    0.0000 C   0  0  0  0  0  0  0  0  0  0  0  0
    0.3542   -3.2792    0.0000 O   0  0  0  0  0  0  0  0  0  0  0  0
   -1.3958   -2.3042    0.0000 O   0  0  0  0  0  0  0  0  0  0  0  0
    0.2875    0.7208    0.0000 C   0  0  0  0  0  0  0  0  0  0  0  0
    1.2000   -1.9167    0.0000 C   0  0  0  0  0  0  0  0  0  0  0  0
   -3.1208   -0.2875    0.0000 C   0  0  0  0  0  0  0  0  0  0  0  0
    1.3500   -3.5375    0.0000 C   0  0  0  0  0  0  0  0  0  0  0  0
    1.8667   -2.6875    0.0000 C   0  0  0  0  0  0  0  0  0  0  0  0
   -0.5708    1.2000    0.0000 Br  0  0  0  0  0  0  0  0  0  0  0  0
   -3.1208    0.7000    0.0000 Br  0  0  0  0  0  0  0  0  0  0  0  0
    1.1667   -0.7542    0.0000 C   0  0  0  0  0  0  0  0  0  0  0  0
   -2.2625   -1.7875    0.0000 C   0  0  0  0  0  0  0  0  0  0  0  0
    1.1375    1.2458    0.0000 C   0  0  0  0  0  0  0  0  0  0  0  0
   -3.9958   -0.7875    0.0000 C   0  0  0  0  0  0  0  0  0  0  0  0
    2.0292   -0.2542    0.0000 C   0  0  0  0  0  0  0  0  0  0  0  0
   -3.1333   -2.2875    0.0000 C   0  0  0  0  0  0  0  0  0  0  0  0
    2.0042    0.7500    0.0000 C   0  0  0  0  0  0  0  0  0  0  0  0
   -3.9958   -1.7792    0.0000 C   0  0  0  0  0  0  0  0  0  0  0  0
  2  1  1  0  0  0  0
  3  1  1  0  0  0  0
  4  1  1  0  0  0  0
  5  2  1  0  0  0  0
  6  3  1  0  0  0  0
  7  5  1  0  0  0  0
  8  2  2  0  0  0  0
  9  4  1  0  0  0  0
 10  5  2  0  0  0  0
 11  6  2  0  0  0  0
 12  7  1  0  0  0  0
 13 10  1  0  0  0  0
 14  9  1  0  0  0  0
 15 11  1  0  0  0  0
 16  4  2  0  0  0  0
 17  6  1  0  0  0  0
 18  9  2  0  0  0  0
 19 11  1  0  0  0  0
 20 16  1  0  0  0  0
 21 17  2  0  0  0  0
 22 20  2  0  0  0  0
 23 21  1  0  0  0  0
 22 18  1  0  0  0  0
 13 12  2  0  0  0  0
 23 19  2  0  0  0  0
M  END
> <#>
602

> <PLATE>
LAT008

> <ROW>
B

> <COL>
7

> <COORD>
B07

> <LATID>
LAT008B07

> <Supplier>
Chembridge

> <Suplier_CAT#>
5493810

> <Name>
Novel

> <Sec_Name>
143_D05

> <Concentration_(mM)>
2.5

> <IC50_(µM)>
>100

> <Yeast_Active?>
-

> <Pubchem_CID>
1363645

$$$$
