
  -ISIS-  08130814242D

 19 20  0  0  0  0  0  0  0  0999 V2000
   -1.5500    0.6833    0.0000 C   0  0  3  0  0  0  0  0  0  0  0  0
   -0.7458    0.2125    0.0000 C   0  0  3  0  0  0  0  0  0  0  0  0
   -2.3625    0.2125    0.0000 O   0  0  0  0  0  0  0  0  0  0  0  0
   -1.5500    1.6208    0.0000 C   0  0  0  0  0  0  0  0  0  0  0  0
   -3.1708    1.6208    0.0000 C   0  0  0  0  0  0  0  0  0  0  0  0
   -2.3625    2.0958    0.0000 C   0  0  0  0  0  0  0  0  0  0  0  0
   -3.1708    0.6833    0.0000 C   0  0  0  0  0  0  0  0  0  0  0  0
    0.0500   -0.2542    0.0000 C   0  0  3  0  0  0  0  0  0  0  0  0
   -3.9833    2.0958    0.0000 C   0  0  0  0  0  0  0  0  0  0  0  0
   -2.3625    3.0208    0.0000 O   0  0  0  0  0  0  0  0  0  0  0  0
    0.0792    0.6833    0.0000 F   0  0  0  0  0  0  0  0  0  0  0  0
   -0.7458   -0.7375    0.0000 F   0  0  0  0  0  0  0  0  0  0  0  0
   -0.9000    1.3333    0.0000 O   0  0  0  0  0  0  0  0  0  0  0  0
   -3.9833    0.2125    0.0000 C   0  0  0  0  0  0  0  0  0  0  0  0
    0.0667   -1.2167    0.0000 F   0  0  0  0  0  0  0  0  0  0  0  0
    0.8375    0.2125    0.0000 F   0  0  0  0  0  0  0  0  0  0  0  0
   -4.7958    1.6208    0.0000 C   0  0  0  0  0  0  0  0  0  0  0  0
   -4.7958    0.6833    0.0000 C   0  0  0  0  0  0  0  0  0  0  0  0
   -5.6000    2.0958    0.0000 C   0  0  0  0  0  0  0  0  0  0  0  0
  2  1  1  0  0  0  0
  3  1  1  0  0  0  0
  4  1  1  0  0  0  0
  5  6  1  0  0  0  0
  6  4  1  0  0  0  0
  7  3  1  0  0  0  0
  8  2  1  0  0  0  0
  9  5  2  0  0  0  0
 10  6  2  0  0  0  0
 11  2  1  0  0  0  0
 12  2  1  0  0  0  0
 13  1  1  0  0  0  0
 14  7  2  0  0  0  0
 15  8  1  0  0  0  0
 16  8  1  0  0  0  0
 17  9  1  0  0  0  0
 18 14  1  0  0  0  0
 19 17  1  0  0  0  0
  7  5  1  0  0  0  0
 17 18  2  0  0  0  0
M  END
> <#>
794

> <PLATE>
LAT010

> <ROW>
B

> <COL>
11

> <COORD>
B11

> <LATID>
LAT010B11

> <Supplier>
Chembridge

> <Suplier_CAT#>
5569162

> <Name>
Novel

> <Sec_Name>
175_G03

> <Concentration_(mM)>
2.5

> <IC50_(µM)>
31

> <Yeast_Active?>
-

> <Pubchem_CID>
867525

$$$$
