
  -ISIS-  08130814242D

 19 20  0  0  0  0  0  0  0  0999 V2000
    1.5042   -1.7500    0.0000 C   0  0  0  0  0  0  0  0  0  0  0  0
   -2.2958    1.7333    0.0000 S   0  0  0  0  0  0  0  0  0  0  0  0
   -3.4500    1.4708    0.0000 C   0  0  0  0  0  0  0  0  0  0  0  0
   -1.6958    0.7125    0.0000 C   0  0  0  0  0  0  0  0  0  0  0  0
   -0.0708   -0.4875    0.0000 N   0  0  0  0  0  0  0  0  0  0  0  0
   -3.5625    0.3125    0.0000 C   0  0  0  0  0  0  0  0  0  0  0  0
    2.6792   -1.8792    0.0000 C   0  0  3  0  0  0  0  0  0  0  0  0
   -2.4500   -0.1542    0.0000 C   0  0  0  0  0  0  0  0  0  0  0  0
   -0.5333    0.5833    0.0000 C   0  0  0  0  0  0  0  0  0  0  0  0
    1.0542   -0.6500    0.0000 N   0  0  0  0  0  0  0  0  0  0  0  0
    0.8292   -2.6875    0.0000 O   0  0  0  0  0  0  0  0  0  0  0  0
    3.3875   -0.9375    0.0000 C   0  0  0  0  0  0  0  0  0  0  0  0
   -4.3333    2.2208    0.0000 Cl  0  0  0  0  0  0  0  0  0  0  0  0
    3.1667   -2.9875    0.0000 O   0  0  0  0  0  0  0  0  0  0  0  0
    4.5542   -1.0667    0.0000 C   0  0  0  0  0  0  0  0  0  0  0  0
    2.9042    0.1333    0.0000 C   0  0  0  0  0  0  0  0  0  0  0  0
    5.2375   -0.1292    0.0000 C   0  0  0  0  0  0  0  0  0  0  0  0
    3.6167    1.0708    0.0000 C   0  0  0  0  0  0  0  0  0  0  0  0
    4.7875    0.9458    0.0000 C   0  0  0  0  0  0  0  0  0  0  0  0
  2  4  1  0  0  0  0
  3  2  1  0  0  0  0
  4  9  1  0  0  0  0
  5 10  1  0  0  0  0
  6  8  1  0  0  0  0
  7  1  1  0  0  0  0
  8  4  2  0  0  0  0
  9  5  2  0  0  0  0
 10  1  1  0  0  0  0
 11  1  2  0  0  0  0
 12  7  1  0  0  0  0
 13  3  1  0  0  0  0
 14  7  1  0  0  0  0
 15 12  2  0  0  0  0
 16 12  1  0  0  0  0
 17 15  1  0  0  0  0
 18 16  2  0  0  0  0
 19 18  1  0  0  0  0
 17 19  2  0  0  0  0
  3  6  2  0  0  0  0
M  END
> <#>
909

> <PLATE>
LAT012

> <ROW>
E

> <COL>
5

> <COORD>
E05

> <LATID>
LAT012E05

> <Supplier>
Chembridge

> <Suplier_CAT#>
5688187

> <Name>
Novel

> <Sec_Name>
220_F11

> <Concentration_(mM)>
2.5

> <IC50_(µM)>
23

> <Yeast_Active?>
-

> <Pubchem_CID>
868092

> <Comment>
SS08

$$$$
