
  -ISIS-  08130814242D

 57 60  0  0  0  0  0  0  0  0999 V2000
    5.5417   -1.0792    0.0000 C   0  0  1  0  0  0  0  0  0  0  0  0
    5.5417   -1.6417    0.0000 C   0  0  3  0  0  0  0  0  0  0  0  0
    5.0375   -1.9417    0.0000 C   0  0  0  0  0  0  0  0  0  0  0  0
    4.0167   -1.9417    0.0000 C   0  0  2  0  0  0  0  0  0  0  0  0
    4.5250   -1.6417    0.0000 C   0  0  3  0  0  0  0  0  0  0  0  0
    5.0375   -0.7792    0.0000 C   0  0  2  0  0  0  0  0  0  0  0  0
    6.0917   -0.8917    0.0000 C   0  0  1  0  0  0  0  0  0  0  0  0
    4.1042   -2.5167    0.0000 C   0  0  3  0  0  0  0  0  0  0  0  0
    6.0917   -1.8417    0.0000 C   0  0  0  0  0  0  0  0  0  0  0  0
    4.5250   -1.0792    0.0000 C   0  0  2  0  0  0  0  0  0  0  0  0
    3.7042   -2.9417    0.0000 C   0  0  2  0  0  0  0  0  0  0  0  0
    3.5042   -1.6417    0.0000 C   0  0  2  0  0  0  0  0  0  0  0  0
    5.5250    0.0958    0.0000 C   0  0  0  0  0  0  0  0  0  0  0  0
    5.0375   -0.1917    0.0000 O   0  0  0  0  0  0  0  0  0  0  0  0
    6.4250   -1.3417    0.0000 C   0  0  0  0  0  0  0  0  0  0  0  0
    3.1250   -2.8917    0.0000 O   0  0  0  0  0  0  0  0  0  0  0  0
    2.7917   -2.4417    0.0000 C   0  0  0  0  0  0  0  0  0  0  0  0
    2.9667   -1.8792    0.0000 C   0  0  0  0  0  0  0  0  0  0  0  0
    6.7167   -0.7792    0.0000 C   0  0  0  0  0  0  0  0  0  0  0  0
    5.5375    0.6833    0.0000 C   0  0  3  0  0  0  0  0  0  0  0  0
    3.5042   -1.0792    0.0000 O   0  0  0  0  0  0  0  0  0  0  0  0
    6.0250    0.9458    0.0000 O   0  0  0  0  0  0  0  0  0  0  0  0
    4.6875   -2.7042    0.0000 C   0  0  0  0  0  0  0  0  0  0  0  0
    4.8042   -3.2792    0.0000 C   0  0  0  0  0  0  0  0  0  0  0  0
    2.9917   -0.7792    0.0000 C   0  0  0  0  0  0  0  0  0  0  0  0
    6.0375    1.4958    0.0000 C   0  0  0  0  0  0  0  0  0  0  0  0
    5.0375   -2.5417    0.0000 C   0  0  0  0  0  0  0  0  0  0  0  0
    3.2750   -4.4667    0.0000 C   0  0  0  0  0  0  0  0  0  0  0  0
    6.2750   -2.3917    0.0000 O   0  0  0  0  0  0  0  0  0  0  0  0
    3.5250   -3.4917    0.0000 C   0  0  0  0  0  0  0  0  0  0  0  0
    7.6542   -0.7792    0.0000 O   0  0  0  0  0  0  0  0  0  0  0  0
    6.0250   -0.2417    0.0000 O   0  0  0  0  0  0  0  0  0  0  0  0
    7.1875   -0.4417    0.0000 C   0  0  0  0  0  0  0  0  0  0  0  0
    6.8917   -1.3417    0.0000 C   0  0  0  0  0  0  0  0  0  0  0  0
    5.5417   -2.2417    0.0000 O   0  0  0  0  0  0  0  0  0  0  0  0
    4.0167   -0.1917    0.0000 C   0  0  0  0  0  0  0  0  0  0  0  0
    2.2167   -2.5417    0.0000 O   0  0  0  0  0  0  0  0  0  0  0  0
    7.4750   -1.3417    0.0000 C   0  0  0  0  0  0  0  0  0  0  0  0
    4.0167   -0.7792    0.0000 O   0  0  0  0  0  0  0  0  0  0  0  0
    3.6875   -4.0417    0.0000 O   0  0  0  0  0  0  0  0  0  0  0  0
    3.0167   -0.1917    0.0000 O   0  0  0  0  0  0  0  0  0  0  0  0
    5.5667    1.7875    0.0000 O   0  0  0  0  0  0  0  0  0  0  0  0
    4.3542   -3.6917    0.0000 O   0  0  0  0  0  0  0  0  0  0  0  0
    2.7042   -4.3167    0.0000 O   0  0  0  0  0  0  0  0  0  0  0  0
    4.5250    0.0958    0.0000 O   0  0  0  0  0  0  0  0  0  0  0  0
    5.5542   -0.4667    0.0000 C   0  0  0  0  0  0  0  0  0  0  0  0
    4.0375   -1.3167    0.0000 C   0  0  0  0  0  0  0  0  0  0  0  0
    5.0167    0.9583    0.0000 C   0  0  3  0  0  0  0  0  0  0  0  0
    5.3750   -3.4792    0.0000 O   0  0  0  0  0  0  0  0  0  0  0  0
    4.2750   -2.9917    0.0000 C   0  0  0  0  0  0  0  0  0  0  0  0
    6.5250    1.7583    0.0000 C   0  0  0  0  0  0  0  0  0  0  0  0
    2.4875   -1.0542    0.0000 C   0  0  0  0  0  0  0  0  0  0  0  0
    3.4250   -5.0167    0.0000 C   0  0  0  0  0  0  0  0  0  0  0  0
    5.0167    1.5583    0.0000 C   0  0  0  0  0  0  0  0  0  0  0  0
    4.4875    0.6583    0.0000 C   0  0  0  0  0  0  0  0  0  0  0  0
    5.5042   -4.0417    0.0000 C   0  0  0  0  0  0  0  0  0  0  0  0
    4.4917    1.8583    0.0000 C   0  0  0  0  0  0  0  0  0  0  0  0
  2  1  1  0  0  0  0
  3  2  1  0  0  0  0
  4  5  1  0  0  0  0
  5 10  1  0  0  0  0
  6  1  1  0  0  0  0
  7  1  1  0  0  0  0
  8  4  1  0  0  0  0
  9  2  1  0  0  0  0
 10  6  1  0  0  0  0
 11  8  1  0  0  0  0
 12  4  1  0  0  0  0
 13 14  1  0  0  0  0
  6 14  1  6  0  0  0
 15  7  1  0  0  0  0
 16 11  1  0  0  0  0
 17 18  1  0  0  0  0
 18 12  1  0  0  0  0
  7 19  1  6  0  0  0
 20 13  1  0  0  0  0
 12 21  1  6  0  0  0
 22 20  1  0  0  0  0
 23  8  1  0  0  0  0
 24 23  1  0  0  0  0
 25 21  1  0  0  0  0
 26 22  1  0  0  0  0
 27  3  2  0  0  0  0
 28 40  1  0  0  0  0
 29  9  2  0  0  0  0
 30 11  1  0  0  0  0
 31 33  1  0  0  0  0
 32 13  2  0  0  0  0
 33 19  2  0  0  0  0
 34 19  1  0  0  0  0
 35  2  1  0  0  0  0
 36 39  1  0  0  0  0
 37 17  2  0  0  0  0
 38 34  2  0  0  0  0
 10 39  1  1  0  0  0
 40 30  1  0  0  0  0
 41 25  2  0  0  0  0
 42 26  2  0  0  0  0
 43 24  2  0  0  0  0
 44 28  2  0  0  0  0
 45 36  2  0  0  0  0
  1 46  1  6  0  0  0
  4 47  1  1  0  0  0
 48 20  1  0  0  0  0
 49 24  1  0  0  0  0
 11 50  1  6  0  0  0
 51 26  1  0  0  0  0
 52 25  1  0  0  0  0
 53 28  1  0  0  0  0
 54 48  1  0  0  0  0
 55 48  1  0  0  0  0
 56 49  1  0  0  0  0
 57 54  1  0  0  0  0
 15  9  1  0  0  0  0
  3  5  1  0  0  0  0
 31 38  1  0  0  0  0
 17 16  1  0  0  0  0
M  END
> <#>
3

> <PLATE>
LAT001

> <ROW>
C

> <COL>
2

> <COORD>
C02

> <LATID>
LAT001C02

> <Supplier>
Microsource

> <Suplier_CAT#>
00100069

> <Name>
Prieuranin Acetate

> <Concentration_(mM)>
2.5

> <IC50_(µM)>
0.82

> <Yeast_Active?>
-

> <Pubchem_CID>
188615

> <Source>
Natural Product; ex several 'Meliaceae' genera

$$$$
