
  -ISIS-  08130814242D

 29 32  0  0  0  0  0  0  0  0999 V2000
    2.2667   -0.9542    0.0000 C   0  0  0  0  0  0  0  0  0  0  0  0
    1.5167    0.3500    0.0000 C   0  0  0  0  0  0  0  0  0  0  0  0
    1.5167   -0.5167    0.0000 C   0  0  0  0  0  0  0  0  0  0  0  0
    2.2667    0.7958    0.0000 O   0  0  0  0  0  0  0  0  0  0  0  0
    3.0042    0.3458    0.0000 C   0  0  0  0  0  0  0  0  0  0  0  0
    3.0042   -0.5000    0.0000 C   0  0  0  0  0  0  0  0  0  0  0  0
    0.7667    0.7958    0.0000 C   0  0  0  0  0  0  0  0  0  0  0  0
    0.7667   -0.9542    0.0000 C   0  0  0  0  0  0  0  0  0  0  0  0
   -2.2500    0.7458    0.0000 C   0  0  0  0  0  0  0  0  0  0  0  0
   -3.0208    2.8958    0.0000 C   0  0  3  0  0  0  0  0  0  0  0  0
   -2.2500    1.6000    0.0000 C   0  0  3  0  0  0  0  0  0  0  0  0
    2.2667   -1.8167    0.0000 C   0  0  0  0  0  0  0  0  0  0  0  0
   -2.2500    3.3458    0.0000 O   0  0  0  0  0  0  0  0  0  0  0  0
   -3.0208    2.0458    0.0000 C   0  0  0  0  0  0  0  0  0  0  0  0
    3.7500    0.7458    0.0000 O   0  0  0  0  0  0  0  0  0  0  0  0
   -1.5125    0.3208    0.0000 C   0  0  0  0  0  0  0  0  0  0  0  0
   -3.0208    0.2625    0.0000 O   0  0  0  0  0  0  0  0  0  0  0  0
    0.0000    0.3458    0.0000 C   0  0  0  0  0  0  0  0  0  0  0  0
   -0.7708    0.7625    0.0000 O   0  0  0  0  0  0  0  0  0  0  0  0
    0.0000   -0.5000    0.0000 C   0  0  0  0  0  0  0  0  0  0  0  0
   -1.5125    2.9125    0.0000 C   0  0  0  0  0  0  0  0  0  0  0  0
   -1.5125    2.0458    0.0000 C   0  0  0  0  0  0  0  0  0  0  0  0
   -3.8833    2.7833    0.0000 C   0  0  0  0  0  0  0  0  0  0  0  0
   -3.3208    3.5708    0.0000 C   0  0  0  0  0  0  0  0  0  0  0  0
    3.0500   -2.2292    0.0000 C   0  0  0  0  0  0  0  0  0  0  0  0
    1.5292   -2.2667    0.0000 C   0  0  0  0  0  0  0  0  0  0  0  0
    3.0542   -3.1042    0.0000 C   0  0  0  0  0  0  0  0  0  0  0  0
    1.5500   -3.1500    0.0000 C   0  0  0  0  0  0  0  0  0  0  0  0
    2.3042   -3.5542    0.0000 C   0  0  0  0  0  0  0  0  0  0  0  0
  2  3  2  0  0  0  0
  3  1  1  0  0  0  0
  4  5  1  0  0  0  0
  5  6  1  0  0  0  0
  6  1  2  0  0  0  0
  7  2  1  0  0  0  0
  8  3  1  0  0  0  0
  9 16  1  0  0  0  0
 10 14  1  0  0  0  0
 11  9  1  0  0  0  0
 12  1  1  0  0  0  0
 13 21  1  0  0  0  0
 14 11  1  0  0  0  0
 15  5  2  0  0  0  0
 16 19  1  0  0  0  0
 17  9  2  0  0  0  0
 18 20  1  0  0  0  0
 19 18  1  0  0  0  0
 20  8  2  0  0  0  0
 21 22  1  0  0  0  0
 22 11  1  0  0  0  0
 23 10  1  0  0  0  0
 24 10  1  0  0  0  0
 25 12  1  0  0  0  0
 26 12  2  0  0  0  0
 27 25  2  0  0  0  0
 28 26  1  0  0  0  0
 29 28  2  0  0  0  0
  4  2  1  0  0  0  0
 27 29  1  0  0  0  0
  7 18  2  0  0  0  0
 13 10  1  0  0  0  0
M  END
> <#>
903

> <PLATE>
LAT012

> <ROW>
G

> <COL>
4

> <COORD>
G04

> <LATID>
LAT012G04

> <Supplier>
Chembridge

> <Suplier_CAT#>
5679273

> <Name>
Novel

> <Sec_Name>
215_F04

> <Concentration_(mM)>
2.5

> <IC50_(µM)>
21

> <Yeast_Active?>
-

> <Pubchem_CID>
NULL

$$$$
