
  -ISIS-  08130814242D

 29 31  0  0  0  0  0  0  0  0999 V2000
    0.5542    0.5833    0.0000 C   0  0  0  0  0  0  0  0  0  0  0  0
   -0.6458    0.5833    0.0000 C   0  0  0  0  0  0  0  0  0  0  0  0
    0.3292    1.2958    0.0000 C   0  0  0  0  0  0  0  0  0  0  0  0
   -0.4125    1.2958    0.0000 C   0  0  0  0  0  0  0  0  0  0  0  0
   -0.0458    0.1458    0.0000 S   0  0  0  0  0  0  0  0  0  0  0  0
   -1.3500    0.3500    0.0000 C   0  0  0  0  0  0  0  0  0  0  0  0
    1.2667    0.3500    0.0000 N   0  0  0  0  0  0  0  0  0  0  0  0
    1.4167   -0.3792    0.0000 C   0  0  0  0  0  0  0  0  0  0  0  0
    0.7667    1.9000    0.0000 C   0  0  0  0  0  0  0  0  0  0  0  0
   -1.5125   -0.3792    0.0000 N   0  0  3  0  0  0  0  0  0  0  0  0
    2.1292   -0.6042    0.0000 C   0  0  0  0  0  0  0  0  0  0  0  0
   -1.9125    0.8500    0.0000 O   0  0  0  0  0  0  0  0  0  0  0  0
    0.8667   -0.8792    0.0000 O   0  0  0  0  0  0  0  0  0  0  0  0
    0.4667    2.5958    0.0000 O   0  0  0  0  0  0  0  0  0  0  0  0
   -1.8208   -1.8500    0.0000 O   0  0  0  0  0  0  0  0  0  0  0  0
    2.2875   -1.3500    0.0000 C   0  0  0  0  0  0  0  0  0  0  0  0
    2.7000   -0.1042    0.0000 C   0  0  0  0  0  0  0  0  0  0  0  0
   -0.8500    1.9000    0.0000 C   0  0  0  0  0  0  0  0  0  0  0  0
    1.5167    1.8208    0.0000 O   0  0  0  0  0  0  0  0  0  0  0  0
    3.4042   -0.3500    0.0000 C   0  0  0  0  0  0  0  0  0  0  0  0
    3.0000   -1.5792    0.0000 C   0  0  0  0  0  0  0  0  0  0  0  0
    3.5542   -1.0792    0.0000 C   0  0  0  0  0  0  0  0  0  0  0  0
   -0.9500   -0.8792    0.0000 C   0  0  0  0  0  0  0  0  0  0  0  0
   -2.2208   -0.6042    0.0000 C   0  0  0  0  0  0  0  0  0  0  0  0
   -2.3833   -1.3375    0.0000 C   0  0  0  0  0  0  0  0  0  0  0  0
   -1.1125   -1.6042    0.0000 C   0  0  0  0  0  0  0  0  0  0  0  0
    1.9542    2.4333    0.0000 C   0  0  0  0  0  0  0  0  0  0  0  0
    4.2667   -1.3167    0.0000 C   0  0  0  0  0  0  0  0  0  0  0  0
    2.7000    2.3500    0.0000 C   0  0  0  0  0  0  0  0  0  0  0  0
  2  5  1  0  0  0  0
  3  1  2  0  0  0  0
  4  3  1  0  0  0  0
  5  1  1  0  0  0  0
  6  2  1  0  0  0  0
  7  1  1  0  0  0  0
  8  7  1  0  0  0  0
  9  3  1  0  0  0  0
 10  6  1  0  0  0  0
 11  8  1  0  0  0  0
 12  6  2  0  0  0  0
 13  8  2  0  0  0  0
 14  9  2  0  0  0  0
 15 25  1  0  0  0  0
 16 11  1  0  0  0  0
 17 11  2  0  0  0  0
 18  4  1  0  0  0  0
 19  9  1  0  0  0  0
 20 17  1  0  0  0  0
 21 16  2  0  0  0  0
 22 20  2  0  0  0  0
 23 10  1  0  0  0  0
 24 10  1  0  0  0  0
 25 24  1  0  0  0  0
 26 23  1  0  0  0  0
 27 19  1  0  0  0  0
 28 22  1  0  0  0  0
 29 27  1  0  0  0  0
  2  4  2  0  0  0  0
 21 22  1  0  0  0  0
 15 26  1  0  0  0  0
M  END
> <#>
985

> <PLATE>
LAT013

> <ROW>
A

> <COL>
5

> <COORD>
A05

> <LATID>
LAT013A05

> <Supplier>
Chembridge

> <Suplier_CAT#>
5716868

> <Name>
Amidothiolate

> <Sec_Name>
227_E08

> <Concentration_(mM)>
2.5

> <IC50_(µM)>
0.29

> <Yeast_Active?>
-

> <Pubchem_CID>
1255612

$$$$
