
  -ISIS-  08130814242D

 23 24  0  0  0  0  0  0  0  0999 V2000
   -0.1833    0.6000    0.0000 N   0  3  0  0  0  0  0  0  0  0  0  0
    3.5292    1.7333    0.0000 C   0  0  0  0  0  0  0  0  0  0  0  0
    0.3000    0.6000    0.0000 C   0  0  0  0  0  0  0  0  0  0  0  0
   -0.4708    1.0000    0.0000 O   0  5  0  0  0  0  0  0  0  0  0  0
   -0.4458    0.2000    0.0000 O   0  0  0  0  0  0  0  0  0  0  0  0
    4.0000    1.6958    0.0000 C   0  0  0  0  0  0  0  0  0  0  0  0
    3.3042    2.1625    0.0000 O   0  0  0  0  0  0  0  0  0  0  0  0
    0.5542    1.0208    0.0000 C   0  0  0  0  0  0  0  0  0  0  0  0
    0.5167    0.1833    0.0000 C   0  0  0  0  0  0  0  0  0  0  0  0
    3.2542    1.3208    0.0000 N   0  0  0  0  0  0  0  0  0  0  0  0
    4.3000    2.0958    0.0000 C   0  0  0  0  0  0  0  0  0  0  0  0
    4.1875    1.2625    0.0000 C   0  0  0  0  0  0  0  0  0  0  0  0
    1.2500    0.5833    0.0000 C   0  0  0  0  0  0  0  0  0  0  0  0
    4.9542    1.5958    0.0000 C   0  0  0  0  0  0  0  0  0  0  0  0
    1.7500    0.5500    0.0000 N   0  0  0  0  0  0  0  0  0  0  0  0
    1.0292    1.0000    0.0000 C   0  0  0  0  0  0  0  0  0  0  0  0
    1.0000    0.1833    0.0000 C   0  0  0  0  0  0  0  0  0  0  0  0
    4.6667    1.2000    0.0000 C   0  0  0  0  0  0  0  0  0  0  0  0
    4.7542    2.0333    0.0000 C   0  0  0  0  0  0  0  0  0  0  0  0
    5.4375    1.5500    0.0000 F   0  0  0  0  0  0  0  0  0  0  0  0
    2.4875    0.9333    0.0000 C   0  0  0  0  0  0  0  0  0  0  0  0
    2.7542    1.3458    0.0000 C   0  0  0  0  0  0  0  0  0  0  0  0
    2.0167    0.9500    0.0000 C   0  0  0  0  0  0  0  0  0  0  0  0
  2 10  1  0  0  0  0
  3  1  1  0  0  0  0
  4  1  1  0  0  0  0
  5  1  2  0  0  0  0
  6  2  1  0  0  0  0
  7  2  2  0  0  0  0
  8  3  1  0  0  0  0
  9  3  2  0  0  0  0
 10 22  1  0  0  0  0
 11  6  2  0  0  0  0
 12  6  1  0  0  0  0
 13 17  2  0  0  0  0
 14 18  1  0  0  0  0
 15 13  1  0  0  0  0
 16  8  2  0  0  0  0
 17  9  1  0  0  0  0
 18 12  2  0  0  0  0
 19 11  1  0  0  0  0
 20 14  1  0  0  0  0
 21 23  1  0  0  0  0
 22 21  1  0  0  0  0
 23 15  1  0  0  0  0
 16 13  1  0  0  0  0
 14 19  2  0  0  0  0
M  CHG  2   1   1   4  -1
M  END
> <#>
755

> <PLATE>
LAT010

> <ROW>
C

> <COL>
6

> <COORD>
C06

> <LATID>
LAT010C06

> <Supplier>
Chembridge

> <Suplier_CAT#>
5603779

> <Name>
Novel

> <Sec_Name>
182_H10

> <Concentration_(mM)>
2.5

> <IC50_(µM)>
32

> <Yeast_Active?>
-

> <Pubchem_CID>
2854707

$$$$
