
  -ISIS-  08130814242D

 30 33  0  0  0  0  0  0  0  0999 V2000
    4.0667   -3.6792    0.0000 C   0  0  0  0  0  0  0  0  0  0  0  0
    3.6500   -3.0542    0.0000 C   0  0  0  0  0  0  0  0  0  0  0  0
    5.3292   -3.2000    0.0000 C   0  0  3  0  0  0  0  0  0  0  0  0
    6.0500   -3.4167    0.0000 C   0  0  0  0  0  0  0  0  0  0  0  0
    3.7375   -4.3542    0.0000 N   0  0  0  0  0  0  0  0  0  0  0  0
    4.8167   -3.7500    0.0000 O   0  0  0  0  0  0  0  0  0  0  0  0
    5.2167   -2.4500    0.0000 N   0  0  0  0  0  0  0  0  0  0  0  0
    2.9000   -3.1042    0.0000 N   0  0  0  0  0  0  0  0  0  0  0  0
    3.8667   -2.3500    0.0000 C   0  0  0  0  0  0  0  0  0  0  0  0
    6.2042   -4.1500    0.0000 C   0  0  0  0  0  0  0  0  0  0  0  0
    2.9875   -4.4042    0.0000 C   0  0  0  0  0  0  0  0  0  0  0  0
    4.5667   -2.0792    0.0000 C   0  0  0  0  0  0  0  0  0  0  0  0
    2.5792   -3.7875    0.0000 N   0  0  0  0  0  0  0  0  0  0  0  0
    6.9292   -4.3792    0.0000 C   0  0  0  0  0  0  0  0  0  0  0  0
    7.4792   -3.8667    0.0000 C   0  0  0  0  0  0  0  0  0  0  0  0
    6.6000   -2.9042    0.0000 C   0  0  0  0  0  0  0  0  0  0  0  0
    7.3042   -3.1375    0.0000 C   0  0  0  0  0  0  0  0  0  0  0  0
    2.6542   -5.0875    0.0000 S   0  0  0  0  0  0  0  0  0  0  0  0
    5.6542   -4.6542    0.0000 O   0  0  0  0  0  0  0  0  0  0  0  0
    7.0875   -5.1042    0.0000 O   0  0  0  0  0  0  0  0  0  0  0  0
    7.8667   -2.6292    0.0000 Br  0  0  0  0  0  0  0  0  0  0  0  0
    3.2792   -1.8792    0.0000 C   0  0  0  0  0  0  0  0  0  0  0  0
    4.6875   -1.3292    0.0000 C   0  0  0  0  0  0  0  0  0  0  0  0
    1.9167   -5.1375    0.0000 C   0  0  0  0  0  0  0  0  0  0  0  0
    6.5375   -5.6167    0.0000 C   0  0  0  0  0  0  0  0  0  0  0  0
    1.5875   -5.8042    0.0000 C   0  0  0  0  0  0  0  0  0  0  0  0
    3.4000   -1.1292    0.0000 C   0  0  0  0  0  0  0  0  0  0  0  0
    4.1000   -0.8542    0.0000 C   0  0  0  0  0  0  0  0  0  0  0  0
    6.7000   -6.3500    0.0000 C   0  0  0  0  0  0  0  0  0  0  0  0
    0.8375   -5.8542    0.0000 C   0  0  0  0  0  0  0  0  0  0  0  0
  2  1  2  0  0  0  0
  3  6  1  0  0  0  0
  4  3  1  0  0  0  0
  5  1  1  0  0  0  0
  6  1  1  0  0  0  0
  7  3  1  0  0  0  0
  8  2  1  0  0  0  0
  9  2  1  0  0  0  0
 10  4  1  0  0  0  0
 11  5  2  0  0  0  0
 12  9  2  0  0  0  0
 13 11  1  0  0  0  0
 14 10  2  0  0  0  0
 15 17  2  0  0  0  0
 16  4  2  0  0  0  0
 17 16  1  0  0  0  0
 18 11  1  0  0  0  0
 19 10  1  0  0  0  0
 20 14  1  0  0  0  0
 21 17  1  0  0  0  0
 22  9  1  0  0  0  0
 23 12  1  0  0  0  0
 24 18  1  0  0  0  0
 25 20  1  0  0  0  0
 26 24  1  0  0  0  0
 27 22  2  0  0  0  0
 28 27  1  0  0  0  0
 29 25  1  0  0  0  0
 30 26  1  0  0  0  0
 13  8  2  0  0  0  0
 12  7  1  0  0  0  0
 28 23  2  0  0  0  0
 15 14  1  0  0  0  0
M  END
> <#>
862

> <PLATE>
LAT011

> <ROW>
F

> <COL>
9

> <COORD>
F09

> <LATID>
LAT011F09

> <Supplier>
Chembridge

> <Suplier_CAT#>
5653393

> <Name>
Novel

> <Sec_Name>
202_H03

> <Concentration_(mM)>
2.5

> <IC50_(µM)>
42

> <Yeast_Active?>
+

> <Pubchem_CID>
2858476

$$$$
