
  -ISIS-  08130814242D

 21 23  0  0  0  0  0  0  0  0999 V2000
   -1.0708    0.0000    0.0000 C   0  0  0  0  0  0  0  0  0  0  0  0
   -0.0500    0.5958    0.0000 C   0  0  0  0  0  0  0  0  0  0  0  0
   -2.1125    0.6125    0.0000 C   0  0  0  0  0  0  0  0  0  0  0  0
    1.0042   -0.0167    0.0000 C   0  0  0  0  0  0  0  0  0  0  0  0
   -2.1125    1.8000    0.0000 C   0  0  0  0  0  0  0  0  0  0  0  0
   -3.1500    0.0000    0.0000 C   0  0  0  0  0  0  0  0  0  0  0  0
   -0.0500    1.8000    0.0000 C   0  0  0  0  0  0  0  0  0  0  0  0
   -1.0708   -1.2292    0.0000 O   0  0  0  0  0  0  0  0  0  0  0  0
   -1.0708    2.4125    0.0000 C   0  0  0  0  0  0  0  0  0  0  0  0
    2.0500    0.5958    0.0000 C   0  0  0  0  0  0  0  0  0  0  0  0
   -3.1500    2.4125    0.0000 C   0  0  0  0  0  0  0  0  0  0  0  0
   -4.1958    0.6125    0.0000 C   0  0  0  0  0  0  0  0  0  0  0  0
    4.1292    1.7833    0.0000 C   0  0  0  0  0  0  0  0  0  0  0  0
   -4.1958    1.8000    0.0000 C   0  0  0  0  0  0  0  0  0  0  0  0
    5.1500    2.3958    0.0000 Br  0  0  0  0  0  0  0  0  0  0  0  0
    3.0875   -0.0167    0.0000 C   0  0  0  0  0  0  0  0  0  0  0  0
    2.0500    1.7833    0.0000 C   0  0  0  0  0  0  0  0  0  0  0  0
    3.0667    2.3958    0.0000 C   0  0  0  0  0  0  0  0  0  0  0  0
    4.1292    0.5708    0.0000 C   0  0  0  0  0  0  0  0  0  0  0  0
   -5.2333    0.0208    0.0000 O   0  0  0  0  0  0  0  0  0  0  0  0
   -5.2208   -1.1667    0.0000 C   0  0  0  0  0  0  0  0  0  0  0  0
  2  1  1  0  0  0  0
  3  1  1  0  0  0  0
  4  2  2  0  0  0  0
  5  3  2  0  0  0  0
  6  3  1  0  0  0  0
  7  2  1  0  0  0  0
  8  1  2  0  0  0  0
  9  5  1  0  0  0  0
 10  4  1  0  0  0  0
 11  5  1  0  0  0  0
 12  6  2  0  0  0  0
 13 18  2  0  0  0  0
 14 12  1  0  0  0  0
 15 13  1  0  0  0  0
 16 10  1  0  0  0  0
 17 10  2  0  0  0  0
 18 17  1  0  0  0  0
 19 16  2  0  0  0  0
 20 12  1  0  0  0  0
 21 20  1  0  0  0  0
  9  7  1  0  0  0  0
 11 14  2  0  0  0  0
 13 19  1  0  0  0  0
M  END
> <#>
1011

> <PLATE>
LAT013

> <ROW>
C

> <COL>
8

> <COORD>
C08

> <LATID>
LAT013C08

> <Supplier>
Chembridge

> <Suplier_CAT#>
5611049

> <Name>
Novel

> <Sec_Name>
185_C04

> <Concentration_(mM)>
2.5

> <IC50_(µM)>
inactive

> <Yeast_Active?>
-

> <Pubchem_CID>
872518

$$$$
