
  -ISIS-  08130814242D

 32 36  0  0  0  0  0  0  0  0999 V2000
   -1.5000    0.9333    0.0000 C   0  0  0  0  0  0  0  0  0  0  0  0
   -0.3833    0.9333    0.0000 N   0  0  3  0  0  0  0  0  0  0  0  0
   -0.9458    0.6125    0.0000 C   0  0  0  0  0  0  0  0  0  0  0  0
   -1.5000    1.5708    0.0000 C   0  0  0  0  0  0  0  0  0  0  0  0
   -0.9458    1.8958    0.0000 N   0  0  0  0  0  0  0  0  0  0  0  0
   -0.3833    1.5708    0.0000 C   0  0  0  0  0  0  0  0  0  0  0  0
   -2.0625    0.6125    0.0000 C   0  0  3  0  0  0  0  0  0  0  0  0
   -2.0625    1.8958    0.0000 C   0  0  0  0  0  0  0  0  0  0  0  0
   -2.6208    1.5708    0.0000 C   0  0  0  0  0  0  0  0  0  0  0  0
    0.2000    0.6333    0.0000 C   0  0  0  0  0  0  0  0  0  0  0  0
   -2.6208    0.9333    0.0000 C   0  0  0  0  0  0  0  0  0  0  0  0
   -0.9458   -0.0500    0.0000 O   0  0  0  0  0  0  0  0  0  0  0  0
    0.2000    1.8708    0.0000 N   0  0  0  0  0  0  0  0  0  0  0  0
    0.2375   -0.0292    0.0000 C   0  0  0  0  0  0  0  0  0  0  0  0
   -2.7208    0.6125    0.0000 C   0  0  0  0  0  0  0  0  0  0  0  0
   -1.7458    0.0500    0.0000 C   0  0  0  0  0  0  0  0  0  0  0  0
    0.8000   -0.3292    0.0000 C   0  0  0  0  0  0  0  0  0  0  0  0
   -2.0625    2.5500    0.0000 C   0  0  0  0  0  0  0  0  0  0  0  0
   -3.1833    1.9125    0.0000 C   0  0  0  0  0  0  0  0  0  0  0  0
    0.8375    3.4708    0.0000 O   0  0  0  0  0  0  0  0  0  0  0  0
    0.2375    2.5333    0.0000 C   0  0  0  0  0  0  0  0  0  0  0  0
    0.8000    2.8333    0.0000 C   0  0  0  0  0  0  0  0  0  0  0  0
    0.8375   -0.9875    0.0000 C   0  0  0  0  0  0  0  0  0  0  0  0
    1.3375    0.0333    0.0000 C   0  0  0  0  0  0  0  0  0  0  0  0
   -3.0458    0.0500    0.0000 C   0  0  0  0  0  0  0  0  0  0  0  0
   -2.0833   -0.5292    0.0000 C   0  0  0  0  0  0  0  0  0  0  0  0
   -2.6208    2.8708    0.0000 C   0  0  0  0  0  0  0  0  0  0  0  0
   -3.1833    2.5500    0.0000 C   0  0  0  0  0  0  0  0  0  0  0  0
    1.9167   -0.2667    0.0000 C   0  0  0  0  0  0  0  0  0  0  0  0
    1.4167   -1.2667    0.0000 C   0  0  0  0  0  0  0  0  0  0  0  0
   -2.7000   -0.5292    0.0000 C   0  0  0  0  0  0  0  0  0  0  0  0
    1.9542   -0.9042    0.0000 C   0  0  0  0  0  0  0  0  0  0  0  0
  2  3  1  0  0  0  0
  3  1  1  0  0  0  0
  4  1  2  0  0  0  0
  5  4  1  0  0  0  0
  6  5  2  0  0  0  0
  7  1  1  0  0  0  0
  8  4  1  0  0  0  0
  9 11  1  0  0  0  0
 10  2  1  0  0  0  0
 11  7  1  0  0  0  0
 12  3  2  0  0  0  0
 13  6  1  0  0  0  0
 14 10  1  0  0  0  0
 15  7  1  0  0  0  0
 16  7  1  0  0  0  0
 17 14  1  0  0  0  0
 18  8  1  0  0  0  0
 19  9  1  0  0  0  0
 20 22  1  0  0  0  0
 21 13  1  0  0  0  0
 22 21  1  0  0  0  0
 23 17  1  0  0  0  0
 24 17  2  0  0  0  0
 25 15  1  0  0  0  0
 26 16  1  0  0  0  0
 27 18  2  0  0  0  0
 28 19  2  0  0  0  0
 29 24  1  0  0  0  0
 30 23  2  0  0  0  0
 31 26  1  0  0  0  0
 32 29  2  0  0  0  0
  9  8  2  0  0  0  0
  2  6  1  0  0  0  0
 25 31  1  0  0  0  0
 28 27  1  0  0  0  0
 32 30  1  0  0  0  0
M  END
> <#>
1032

> <PLATE>
LAT013

> <ROW>
H

> <COL>
10

> <COORD>
H10

> <LATID>
LAT013H10

> <Supplier>
Chembridge

> <Suplier_CAT#>
5705169

> <Name>
Quinazomine

> <Sec_Name>
222_E09

> <Concentration_(mM)>
2.5

> <IC50_(µM)>
5.4

> <Yeast_Active?>
-

> <Pubchem_CID>
1724676

$$$$
