
  -ISIS-  08130814242D

 16 18  0  0  0  0  0  0  0  0999 V2000
    4.2625   -1.4292    0.0000 C   0  0  0  0  0  0  0  0  0  0  0  0
    4.2542   -2.2667    0.0000 C   0  0  0  0  0  0  0  0  0  0  0  0
    2.8292   -1.4375    0.0000 C   0  0  0  0  0  0  0  0  0  0  0  0
    3.5417   -1.0167    0.0000 C   0  0  0  0  0  0  0  0  0  0  0  0
    2.8292   -2.2625    0.0000 C   0  0  0  0  0  0  0  0  0  0  0  0
    4.9792   -1.0125    0.0000 C   0  0  0  0  0  0  0  0  0  0  0  0
    4.9750   -2.6792    0.0000 O   0  0  0  0  0  0  0  0  0  0  0  0
    3.5417   -2.6750    0.0000 C   0  0  0  0  0  0  0  0  0  0  0  0
    5.7000   -2.2667    0.0000 C   0  0  0  0  0  0  0  0  0  0  0  0
    5.7000   -1.4292    0.0000 C   0  0  0  0  0  0  0  0  0  0  0  0
    2.0500   -2.5167    0.0000 O   0  0  0  0  0  0  0  0  0  0  0  0
    2.0500   -1.1792    0.0000 C   0  0  0  0  0  0  0  0  0  0  0  0
    1.5667   -1.8500    0.0000 C   0  0  0  0  0  0  0  0  0  0  0  0
    6.4125   -2.6792    0.0000 O   0  0  0  0  0  0  0  0  0  0  0  0
    3.5417   -0.1917    0.0000 O   0  0  0  0  0  0  0  0  0  0  0  0
    4.2542    0.2208    0.0000 C   0  0  0  0  0  0  0  0  0  0  0  0
  2  1  1  0  0  0  0
  3  4  1  0  0  0  0
  4  1  2  0  0  0  0
  5  3  2  0  0  0  0
  6  1  1  0  0  0  0
  7  2  1  0  0  0  0
  8  2  2  0  0  0  0
  9 10  1  0  0  0  0
 10  6  2  0  0  0  0
 11  5  1  0  0  0  0
 12  3  1  0  0  0  0
 13 12  2  0  0  0  0
 14  9  2  0  0  0  0
 15  4  1  0  0  0  0
 16 15  1  0  0  0  0
  5  8  1  0  0  0  0
  7  9  1  0  0  0  0
 13 11  1  0  0  0  0
M  END
> <#>
13

> <PLATE>
LAT001

> <ROW>
E

> <COL>
3

> <COORD>
E03

> <LATID>
LAT001E03

> <Supplier>
Microsource

> <Suplier_CAT#>
00300546

> <Name>
Bergapten

> <Concentration_(mM)>
2.5

> <IC50_(µM)>
>100

> <Yeast_Active?>
-

> <Pubchem_CID>
2355

> <Description>
Antipsoriatic, Antiinflammatory

> <Source>
widespread in Umbelliferae

$$$$
