
  -ISIS-  08130814242D

 47 48  0  0  0  0  0  0  0  0999 V2000
    2.1411   -6.1816    0.0000 C   0  0  0  0  0  0  0  0  0  0  0  0
    1.5161   -5.0990    0.0000 C   0  0  2  0  0  0  0  0  0  0  0  0
    0.2661   -5.0990    0.0000 C   0  0  2  0  0  0  0  0  0  0  0  0
   -0.3589   -4.0165    0.0000 C   0  0  1  0  0  0  0  0  0  0  0  0
    0.2661   -2.9340    0.0000 C   0  0  2  0  0  0  0  0  0  0  0  0
    1.5161   -2.9340    0.0000 C   0  0  2  0  0  0  0  0  0  0  0  0
    2.1411   -1.8514    0.0000 O   0  0  0  0  0  0  0  0  0  0  0  0
    3.3911   -1.8514    0.0000 C   0  0  2  0  0  0  0  0  0  0  0  0
    4.0161   -0.7689    0.0000 C   0  0  1  0  0  0  0  0  0  0  0  0
    3.3911    0.3136    0.0000 C   0  0  0  0  0  0  0  0  0  0  0  0
    5.2661   -0.7689    0.0000 O   0  0  0  0  0  0  0  0  0  0  0  0
    5.8911   -1.8514    0.0000 C   0  0  2  0  0  0  0  0  0  0  0  0
    5.2661   -2.9340    0.0000 C   0  0  1  0  0  0  0  0  0  0  0  0
    4.0161   -2.9340    0.0000 C   0  0  1  0  0  0  0  0  0  0  0  0
    2.1411   -4.0165    0.0000 O   0  0  0  0  0  0  0  0  0  0  0  0
    2.1411   -8.3466    0.0000 C   0  0  0  0  0  0  0  0  0  0  0  0
    3.3911   -8.3466    0.0000 C   0  0  0  0  0  0  0  0  0  0  0  0
    1.5161   -9.4292    0.0000 O   0  0  0  0  0  0  0  0  0  0  0  0
    1.5161   -7.2641    0.0000 O   0  0  0  0  0  0  0  0  0  0  0  0
   -1.8167   -7.1818    0.0000 C   0  0  0  0  0  0  0  0  0  0  0  0
   -1.9256   -8.4271    0.0000 C   0  0  0  0  0  0  0  0  0  0  0  0
   -2.8992   -6.5568    0.0000 O   0  0  0  0  0  0  0  0  0  0  0  0
   -0.2897   -6.6260    0.0000 O   0  0  0  0  0  0  0  0  0  0  0  0
   -2.3934   -4.7570    0.0000 C   0  0  0  0  0  0  0  0  0  0  0  0
   -3.6244   -4.5399    0.0000 C   0  0  0  0  0  0  0  0  0  0  0  0
   -1.9659   -5.9316    0.0000 O   0  0  0  0  0  0  0  0  0  0  0  0
   -1.5899   -3.7994    0.0000 O   0  0  0  0  0  0  0  0  0  0  0  0
   -1.6089   -1.8514    0.0000 C   0  0  0  0  0  0  0  0  0  0  0  0
   -2.2339   -2.9340    0.0000 C   0  0  0  0  0  0  0  0  0  0  0  0
   -2.2339   -0.7689    0.0000 O   0  0  0  0  0  0  0  0  0  0  0  0
   -0.3589   -1.8514    0.0000 O   0  0  0  0  0  0  0  0  0  0  0  0
    3.3911    2.4787    0.0000 C   0  0  0  0  0  0  0  0  0  0  0  0
    2.1411    2.4787    0.0000 C   0  0  0  0  0  0  0  0  0  0  0  0
    4.0161    3.5612    0.0000 O   0  0  0  0  0  0  0  0  0  0  0  0
    4.0161    1.3962    0.0000 O   0  0  0  0  0  0  0  0  0  0  0  0
    7.7661   -0.7689    0.0000 C   0  0  0  0  0  0  0  0  0  0  0  0
    9.0161   -0.7689    0.0000 C   0  0  0  0  0  0  0  0  0  0  0  0
    7.1411    0.3136    0.0000 O   0  0  0  0  0  0  0  0  0  0  0  0
    7.1411   -1.8514    0.0000 O   0  0  0  0  0  0  0  0  0  0  0  0
    7.1411   -4.0165    0.0000 C   0  0  0  0  0  0  0  0  0  0  0  0
    7.7661   -5.0990    0.0000 C   0  0  0  0  0  0  0  0  0  0  0  0
    7.7661   -2.9340    0.0000 O   0  0  0  0  0  0  0  0  0  0  0  0
    5.8911   -4.0165    0.0000 O   0  0  0  0  0  0  0  0  0  0  0  0
    4.0161   -5.0990    0.0000 C   0  0  0  0  0  0  0  0  0  0  0  0
    5.2661   -5.0990    0.0000 C   0  0  0  0  0  0  0  0  0  0  0  0
    3.3911   -6.1816    0.0000 O   0  0  0  0  0  0  0  0  0  0  0  0
    3.3911   -4.0165    0.0000 O   0  0  0  0  0  0  0  0  0  0  0  0
  2  1  1  6  0  0  0
  2  3  1  0  0  0  0
  3  4  1  0  0  0  0
  4  5  1  0  0  0  0
  5  6  1  0  0  0  0
  6  7  1  6  0  0  0
  8  7  1  6  0  0  0
  8  9  1  0  0  0  0
  9 10  1  1  0  0  0
  9 11  1  0  0  0  0
 11 12  1  0  0  0  0
 12 13  1  0  0  0  0
 13 14  1  0  0  0  0
  8 14  1  0  0  0  0
  6 15  1  0  0  0  0
  2 15  1  0  0  0  0
 16 17  1  0  0  0  0
 16 18  2  0  0  0  0
 16 19  1  0  0  0  0
  1 19  1  0  0  0  0
 20 21  1  0  0  0  0
 20 22  2  0  0  0  0
 20 23  1  0  0  0  0
  3 23  1  1  0  0  0
 24 25  1  0  0  0  0
 24 26  2  0  0  0  0
 24 27  1  0  0  0  0
  4 27  1  6  0  0  0
 28 29  1  0  0  0  0
 28 30  2  0  0  0  0
 28 31  1  0  0  0  0
  5 31  1  1  0  0  0
 32 33  1  0  0  0  0
 32 34  2  0  0  0  0
 32 35  1  0  0  0  0
 10 35  1  0  0  0  0
 36 37  1  0  0  0  0
 36 38  2  0  0  0  0
 36 39  1  0  0  0  0
 12 39  1  1  0  0  0
 40 41  1  0  0  0  0
 40 42  2  0  0  0  0
 40 43  1  0  0  0  0
 13 43  1  6  0  0  0
 44 45  1  0  0  0  0
 44 46  2  0  0  0  0
 44 47  1  0  0  0  0
 14 47  1  1  0  0  0
M  END
> <#>
416

> <PLATE>
LAT006

> <ROW>
H

> <COL>
3

> <COORD>
H03

> <LATID>
LAT006H03

> <Supplier>
Nutirional Biochemicals

> <Suplier_CAT#>
Cellobiose_oct

> <Name>
Cellobiose Octaacetate

> <Concentration_(mM)>
2.5

> <IC50_(µM)>
inactive

> <Yeast_Active?>
-

> <Pubchem_CID>
107429

$$$$
