
  -ISIS-  08130814242D

  9  9  0  0  0  0  0  0  0  0999 V2000
   -1.5020    2.0585    0.0000 C   0  0  0  0  0  0  0  0  0  0  0  0
   -2.7520    2.0585    0.0000 C   0  0  0  0  0  0  0  0  0  0  0  0
   -3.3770    0.9760    0.0000 C   0  0  0  0  0  0  0  0  0  0  0  0
   -4.6270    0.9760    0.0000 C   0  0  0  0  0  0  0  0  0  0  0  0
   -5.2520    2.0585    0.0000 C   0  0  0  0  0  0  0  0  0  0  0  0
   -4.6270    3.1410    0.0000 N   0  0  0  0  0  0  0  0  0  0  0  0
   -3.3770    3.1410    0.0000 C   0  0  0  0  0  0  0  0  0  0  0  0
   -0.8770    3.1410    0.0000 O   0  0  0  0  0  0  0  0  0  0  0  0
   -0.8770    0.9760    0.0000 O   0  0  0  0  0  0  0  0  0  0  0  0
  1  2  1  0  0  0  0
  2  3  1  0  0  0  0
  3  4  2  0  0  0  0
  4  5  1  0  0  0  0
  5  6  2  0  0  0  0
  6  7  1  0  0  0  0
  2  7  2  0  0  0  0
  1  8  2  0  0  0  0
  1  9  1  0  0  0  0
M  END
> <#>
432

> <PLATE>
LAT006

> <ROW>
H

> <COL>
5

> <COORD>
H05

> <LATID>
LAT006H05

> <Supplier>
Sigma

> <Suplier_CAT#>
N-0765

> <Name>
Nicotinic Acid

> <Concentration_(mM)>
2.5

> <IC50_(µM)>
inactive

> <Yeast_Active?>
-

> <Pubchem_CID>
938

$$$$
