
  -ISIS-  08130814242D

 18 17  0  0  0  0  0  0  0  0999 V2000
   10.3451   -3.2179    0.0000 N   0  0  0  0  0  0  0  0  0  0  0  0
    9.0951   -3.2179    0.0000 C   0  0  0  0  0  0  0  0  0  0  0  0
    8.4701   -4.3004    0.0000 C   0  0  0  0  0  0  0  0  0  0  0  0
    7.2201   -4.3004    0.0000 C   0  0  0  0  0  0  0  0  0  0  0  0
    6.5951   -3.2179    0.0000 C   0  0  0  0  0  0  0  0  0  0  0  0
    7.2201   -2.1353    0.0000 C   0  0  0  0  0  0  0  0  0  0  0  0
    8.4701   -2.1353    0.0000 C   0  0  0  0  0  0  0  0  0  0  0  0
    5.3451   -3.2179    0.0000 C   0  0  0  0  0  0  0  0  0  0  0  0
    4.7201   -4.3004    0.0000 C   0  0  0  0  0  0  0  0  0  0  0  0
    3.4701   -4.3004    0.0000 C   0  0  0  0  0  0  0  0  0  0  0  0
    2.8451   -3.2179    0.0000 C   0  0  0  0  0  0  0  0  0  0  0  0
    1.5951   -3.2179    0.0000 N   0  0  0  0  0  0  0  0  0  0  0  0
    3.4701   -2.1353    0.0000 C   0  0  0  0  0  0  0  0  0  0  0  0
    4.7201   -2.1353    0.0000 C   0  0  0  0  0  0  0  0  0  0  0  0
   11.7159   -3.3671    0.0000 H   0  0  0  0  0  0  0  0  0  0  0  0
   12.9659   -3.3671    0.0000 Cl  0  0  0  0  0  0  0  0  0  0  0  0
   -1.2633   -3.2712    0.0000 H   0  0  0  0  0  0  0  0  0  0  0  0
   -0.0133   -3.2712    0.0000 Cl  0  0  0  0  0  0  0  0  0  0  0  0
  2  3  1  0  0  0  0
  3  4  2  0  0  0  0
  4  5  1  0  0  0  0
  5  6  2  0  0  0  0
  6  7  1  0  0  0  0
  2  7  2  0  0  0  0
  5  8  1  0  0  0  0
  8  9  1  0  0  0  0
  9 10  2  0  0  0  0
 10 11  1  0  0  0  0
 11 12  1  0  0  0  0
 11 13  2  0  0  0  0
 13 14  1  0  0  0  0
  8 14  2  0  0  0  0
 15 16  1  0  0  0  0
  1  2  1  0  0  0  0
 17 18  1  0  0  0  0
M  END
> <#>
302

> <PLATE>
LAT004

> <ROW>
F

> <COL>
9

> <COORD>
F09

> <LATID>
LAT004F09

> <Supplier>
Sigma

> <Suplier_CAT#>
B-3383

> <Name>
Benzidine Hcl

> <Concentration_(mM)>
2.5

> <IC50_(µM)>
>100

> <Yeast_Active?>
-

> <Pubchem_CID>
61741

$$$$
