
  -ISIS-  08130814242D

 35 40  0  0  0  0  0  0  0  0999 V2000
    6.6292   -3.5625    0.0000 C   0  0  1  0  0  0  0  0  0  0  0  0
    5.7292   -4.0667    0.0000 C   0  0  2  0  0  0  0  0  0  0  0  0
    3.9292   -5.1167    0.0000 C   0  0  0  0  0  0  0  0  0  0  0  0
    3.9292   -4.0667    0.0000 C   0  0  1  0  0  0  0  0  0  0  0  0
    6.6292   -2.5125    0.0000 C   0  0  2  0  0  0  0  0  0  0  0  0
    6.7792   -4.6625    0.0000 O   0  0  0  0  0  0  0  0  0  0  0  0
    5.7292   -5.1167    0.0000 C   0  0  0  0  0  0  0  0  0  0  0  0
    7.6042   -3.8625    0.0000 C   0  0  2  0  0  0  0  0  0  0  0  0
    4.8292   -5.6292    0.0000 C   0  0  0  0  0  0  0  0  0  0  0  0
    4.8292   -3.5625    0.0000 C   0  0  3  0  0  0  0  0  0  0  0  0
    7.6042   -2.1792    0.0000 C   0  0  1  0  0  0  0  0  0  0  0  0
    3.0292   -5.6292    0.0000 C   0  0  3  0  0  0  0  0  0  0  0  0
    4.8292   -2.5125    0.0000 C   0  0  1  0  0  0  0  0  0  0  0  0
    3.0292   -3.5625    0.0000 C   0  0  0  0  0  0  0  0  0  0  0  0
    5.7292   -2.0000    0.0000 C   0  0  0  0  0  0  0  0  0  0  0  0
    8.2042   -3.0167    0.0000 C   0  0  0  0  0  0  0  0  0  0  0  0
    7.6042   -1.3542    0.0000 C   0  0  0  0  0  0  0  0  0  0  0  0
    2.1292   -5.1167    0.0000 C   0  0  0  0  0  0  0  0  0  0  0  0
    2.1292   -4.0667    0.0000 C   0  0  0  0  0  0  0  0  0  0  0  0
    3.9542   -1.9917    0.0000 O   0  0  0  0  0  0  0  0  0  0  0  0
    6.6417   -5.6292    0.0000 O   0  0  0  0  0  0  0  0  0  0  0  0
    3.9542   -0.9667    0.0000 C   0  0  0  0  0  0  0  0  0  0  0  0
    7.8250    0.2833    0.0000 O   0  0  0  0  0  0  0  0  0  0  0  0
    8.2917   -0.6167    0.0000 C   0  0  0  0  0  0  0  0  0  0  0  0
    6.6875   -0.9042    0.0000 C   0  0  0  0  0  0  0  0  0  0  0  0
    4.8292   -6.6167    0.0000 O   0  0  0  0  0  0  0  0  0  0  0  0
    6.8167    0.0833    0.0000 C   0  0  0  0  0  0  0  0  0  0  0  0
    1.2042   -5.6292    0.0000 O   0  0  0  0  0  0  0  0  0  0  0  0
    3.0792   -0.4417    0.0000 O   0  0  0  0  0  0  0  0  0  0  0  0
    5.7667   -3.1542    0.0000 C   0  0  0  0  0  0  0  0  0  0  0  0
    3.9250   -3.1542    0.0000 C   0  0  0  0  0  0  0  0  0  0  0  0
    6.6292   -1.4625    0.0000 C   0  0  0  0  0  0  0  0  0  0  0  0
    2.1292   -6.1417    0.0000 C   0  0  0  0  0  0  0  0  0  0  0  0
    3.9292   -6.1417    0.0000 C   0  0  0  0  0  0  0  0  0  0  0  0
    4.8917   -0.4125    0.0000 C   0  0  0  0  0  0  0  0  0  0  0  0
  2  1  1  0  0  0  0
  3  4  1  0  0  0  0
  4 10  1  0  0  0  0
  5  1  1  0  0  0  0
  1  6  1  1  0  0  0
  7  2  1  0  0  0  0
  8  1  1  0  0  0  0
  9  7  1  0  0  0  0
 10  2  1  0  0  0  0
 11  5  1  0  0  0  0
 12  3  1  0  0  0  0
 13 15  1  0  0  0  0
 14  4  1  0  0  0  0
 15  5  1  0  0  0  0
 16  8  1  0  0  0  0
 11 17  1  6  0  0  0
 18 19  1  0  0  0  0
 19 14  2  0  0  0  0
 13 20  1  6  0  0  0
 21  7  2  0  0  0  0
 22 20  1  0  0  0  0
 23 24  1  0  0  0  0
 24 17  2  0  0  0  0
 25 17  1  0  0  0  0
 26  9  1  0  0  0  0
 27 25  2  0  0  0  0
 28 18  2  0  0  0  0
 29 22  2  0  0  0  0
  2 30  1  1  0  0  0
  4 31  1  1  0  0  0
  5 32  1  6  0  0  0
 33 12  1  0  0  0  0
 34 12  1  0  0  0  0
 35 22  1  0  0  0  0
  8  6  1  1  0  0  0
 11 16  1  0  0  0  0
 10 13  1  0  0  0  0
  9  3  2  0  0  0  0
 23 27  1  0  0  0  0
 18 12  1  0  0  0  0
M  END
> <#>
1

> <PLATE>
LAT001

> <ROW>
A

> <COL>
2

> <COORD>
A02

> <LATID>
LAT001A02

> <Supplier>
Microsource

> <Suplier_CAT#>
00100005

> <Name>
Anthothecol

> <Concentration_(mM)>
2.5

> <IC50_(µM)>
63

> <Yeast_Active?>
-

> <Pubchem_CID>
99980

$$$$
