
  -ISIS-  08130814242D

 29 31  0  0  0  0  0  0  0  0999 V2000
    1.4500   -1.9500    0.0000 C   0  0  0  0  0  0  0  0  0  0  0  0
    0.1042   -1.9417    0.0000 C   0  0  0  0  0  0  0  0  0  0  0  0
    1.1917   -1.1542    0.0000 C   0  0  0  0  0  0  0  0  0  0  0  0
    0.3542   -1.1542    0.0000 C   0  0  0  0  0  0  0  0  0  0  0  0
    0.7792   -2.4292    0.0000 S   0  0  0  0  0  0  0  0  0  0  0  0
   -0.7000   -2.1250    0.0000 C   0  0  0  0  0  0  0  0  0  0  0  0
    2.2542   -2.1250    0.0000 N   0  0  0  0  0  0  0  0  0  0  0  0
    2.5042   -2.9042    0.0000 C   0  0  0  0  0  0  0  0  0  0  0  0
    1.7500   -0.5375    0.0000 C   0  0  0  0  0  0  0  0  0  0  0  0
   -0.9500   -2.9042    0.0000 N   0  0  3  0  0  0  0  0  0  0  0  0
    3.3167   -3.0792    0.0000 C   0  0  0  0  0  0  0  0  0  0  0  0
   -1.2583   -1.5042    0.0000 O   0  0  0  0  0  0  0  0  0  0  0  0
    1.9542   -3.5167    0.0000 O   0  0  0  0  0  0  0  0  0  0  0  0
    1.4917    0.2458    0.0000 O   0  0  0  0  0  0  0  0  0  0  0  0
    3.8625   -2.4750    0.0000 C   0  0  0  0  0  0  0  0  0  0  0  0
    3.5625   -3.8667    0.0000 C   0  0  0  0  0  0  0  0  0  0  0  0
   -0.1958   -0.5417    0.0000 C   0  0  0  0  0  0  0  0  0  0  0  0
    2.5542   -0.7042    0.0000 O   0  0  0  0  0  0  0  0  0  0  0  0
    4.9250   -3.4292    0.0000 C   0  0  0  0  0  0  0  0  0  0  0  0
    4.3667   -4.0417    0.0000 C   0  0  0  0  0  0  0  0  0  0  0  0
    4.6667   -2.6417    0.0000 C   0  0  0  0  0  0  0  0  0  0  0  0
    5.7292   -3.6042    0.0000 F   0  0  0  0  0  0  0  0  0  0  0  0
   -1.7500   -3.0875    0.0000 C   0  0  0  0  0  0  0  0  0  0  0  0
   -0.3875   -3.5167    0.0000 C   0  0  0  0  0  0  0  0  0  0  0  0
    3.1042   -0.0917    0.0000 C   0  0  0  0  0  0  0  0  0  0  0  0
   -0.6458   -4.3042    0.0000 C   0  0  0  0  0  0  0  0  0  0  0  0
   -2.0083   -3.8667    0.0000 C   0  0  0  0  0  0  0  0  0  0  0  0
    3.9125   -0.2667    0.0000 C   0  0  0  0  0  0  0  0  0  0  0  0
   -1.4500   -4.4792    0.0000 C   0  0  0  0  0  0  0  0  0  0  0  0
  2  5  1  0  0  0  0
  3  1  2  0  0  0  0
  4  3  1  0  0  0  0
  5  1  1  0  0  0  0
  6  2  1  0  0  0  0
  7  1  1  0  0  0  0
  8  7  1  0  0  0  0
  9  3  1  0  0  0  0
 10  6  1  0  0  0  0
 11  8  1  0  0  0  0
 12  6  2  0  0  0  0
 13  8  2  0  0  0  0
 14  9  2  0  0  0  0
 15 11  1  0  0  0  0
 16 11  2  0  0  0  0
 17  4  1  0  0  0  0
 18  9  1  0  0  0  0
 19 20  2  0  0  0  0
 20 16  1  0  0  0  0
 21 15  2  0  0  0  0
 22 19  1  0  0  0  0
 23 10  1  0  0  0  0
 24 10  1  0  0  0  0
 25 18  1  0  0  0  0
 26 24  1  0  0  0  0
 27 23  1  0  0  0  0
 28 25  1  0  0  0  0
 29 26  1  0  0  0  0
  4  2  2  0  0  0  0
 19 21  1  0  0  0  0
 29 27  1  0  0  0  0
M  END
> <#>
1025

> <PLATE>
LAT013

> <ROW>
A

> <COL>
10

> <COORD>
A10

> <LATID>
LAT013A10

> <Supplier>
Chembridge

> <Suplier_CAT#>
5787388

> <Name>
Novel

> <Sec_Name>
249_B08

> <Concentration_(mM)>
2.5

> <IC50_(µM)>
32

> <Yeast_Active?>
-

> <Pubchem_CID>
NULL

$$$$
