
  -ISIS-  08130814242D

 22 24  0  0  0  0  0  0  0  0999 V2000
   -3.3333    1.8958    0.0000 N   0  0  0  0  0  0  0  0  0  0  0  0
   -3.8833    0.7958    0.0000 C   0  0  0  0  0  0  0  0  0  0  0  0
   -1.8708    0.4708    0.0000 C   0  0  0  0  0  0  0  0  0  0  0  0
   -2.0833    1.7208    0.0000 C   0  0  0  0  0  0  0  0  0  0  0  0
   -2.9958   -0.1042    0.0000 S   0  0  0  0  0  0  0  0  0  0  0  0
   -0.6708    0.0208    0.0000 C   0  0  0  0  0  0  0  0  0  0  0  0
    0.3167    0.8458    0.0000 C   0  0  0  0  0  0  0  0  0  0  0  0
    1.7000   -0.8042    0.0000 S   0  0  0  0  0  0  0  0  0  0  0  0
    1.5000    0.4208    0.0000 C   0  0  0  0  0  0  0  0  0  0  0  0
   -5.1583    0.6000    0.0000 N   0  0  0  0  0  0  0  0  0  0  0  0
   -1.2000    2.6208    0.0000 O   0  0  0  0  0  0  0  0  0  0  0  0
    2.8667   -1.2375    0.0000 C   0  0  0  0  0  0  0  0  0  0  0  0
    5.2375   -2.1042    0.0000 C   0  0  0  0  0  0  0  0  0  0  0  0
    6.4167   -2.5167    0.0000 Cl  0  0  0  0  0  0  0  0  0  0  0  0
    3.0792   -2.4792    0.0000 C   0  0  0  0  0  0  0  0  0  0  0  0
    3.8375   -0.4375    0.0000 C   0  0  0  0  0  0  0  0  0  0  0  0
    5.0167   -0.8792    0.0000 C   0  0  0  0  0  0  0  0  0  0  0  0
    4.2667   -2.9167    0.0000 C   0  0  0  0  0  0  0  0  0  0  0  0
    0.1042    2.0958    0.0000 C   0  0  0  0  0  0  0  0  0  0  0  0
    2.4667    1.2208    0.0000 C   0  0  0  0  0  0  0  0  0  0  0  0
    1.0542    2.9208    0.0000 C   0  0  0  0  0  0  0  0  0  0  0  0
    2.2500    2.4708    0.0000 C   0  0  0  0  0  0  0  0  0  0  0  0
  2  1  1  0  0  0  0
  3  4  1  0  0  0  0
  4  1  1  0  0  0  0
  5  2  1  0  0  0  0
  6  3  2  0  0  0  0
  7  6  1  0  0  0  0
  8  9  1  0  0  0  0
  9  7  1  0  0  0  0
 10  2  2  0  0  0  0
 11  4  2  0  0  0  0
 12  8  1  0  0  0  0
 13 17  2  0  0  0  0
 14 13  1  0  0  0  0
 15 12  1  0  0  0  0
 16 12  2  0  0  0  0
 17 16  1  0  0  0  0
 18 15  2  0  0  0  0
 19  7  2  0  0  0  0
 20  9  2  0  0  0  0
 21 19  1  0  0  0  0
 22 21  2  0  0  0  0
  3  5  1  0  0  0  0
 22 20  1  0  0  0  0
 13 18  1  0  0  0  0
M  END
> <#>
957

> <PLATE>
LAT012

> <ROW>
E

> <COL>
11

> <COORD>
E11

> <LATID>
LAT012E11

> <Supplier>
Chembridge

> <Suplier_CAT#>
5737863

> <Name>
Novel

> <Sec_Name>
235_E04

> <Concentration_(mM)>
2.5

> <IC50_(µM)>
>100

> <Yeast_Active?>
-

> <Pubchem_CID>
NULL

$$$$
