
  -ISIS-  08130814242D

 28 30  0  0  0  0  0  0  0  0999 V2000
    1.6667   -0.0917    0.0000 C   0  0  0  0  0  0  0  0  0  0  0  0
    2.1875    0.7708    0.0000 C   0  0  0  0  0  0  0  0  0  0  0  0
   -2.3708   -1.8000    0.0000 C   0  0  0  0  0  0  0  0  0  0  0  0
    1.6875    1.6500    0.0000 C   0  0  0  0  0  0  0  0  0  0  0  0
    3.2042    0.7708    0.0000 C   0  0  0  0  0  0  0  0  0  0  0  0
   -2.8833   -2.6542    0.0000 N   0  0  0  0  0  0  0  0  0  0  0  0
    0.6542   -0.0792    0.0000 N   0  0  0  0  0  0  0  0  0  0  0  0
   -1.3833   -1.8042    0.0000 C   0  0  0  0  0  0  0  0  0  0  0  0
   -3.8958   -2.6542    0.0000 C   0  0  0  0  0  0  0  0  0  0  0  0
    2.1500   -0.9542    0.0000 O   0  0  0  0  0  0  0  0  0  0  0  0
    2.1917    2.5333    0.0000 C   0  0  0  0  0  0  0  0  0  0  0  0
    3.7167    1.6500    0.0000 C   0  0  0  0  0  0  0  0  0  0  0  0
    0.1292   -0.9500    0.0000 C   0  0  0  0  0  0  0  0  0  0  0  0
   -0.8625   -0.9375    0.0000 C   0  0  0  0  0  0  0  0  0  0  0  0
   -2.8833   -0.9167    0.0000 O   0  0  0  0  0  0  0  0  0  0  0  0
    3.2167    2.5333    0.0000 C   0  0  0  0  0  0  0  0  0  0  0  0
   -4.3958   -1.7875    0.0000 C   0  0  0  0  0  0  0  0  0  0  0  0
   -3.8958   -0.9167    0.0000 Cl  0  0  0  0  0  0  0  0  0  0  0  0
    0.6792    1.6625    0.0000 C   0  0  0  0  0  0  0  0  0  0  0  0
    3.7042   -0.0917    0.0000 C   0  0  0  0  0  0  0  0  0  0  0  0
   -0.8708   -2.7000    0.0000 C   0  0  0  0  0  0  0  0  0  0  0  0
    0.1042   -2.7042    0.0000 C   0  0  0  0  0  0  0  0  0  0  0  0
   -4.3958   -3.5167    0.0000 C   0  0  0  0  0  0  0  0  0  0  0  0
    0.6292   -1.8375    0.0000 C   0  0  0  0  0  0  0  0  0  0  0  0
   -5.3833   -1.7792    0.0000 C   0  0  0  0  0  0  0  0  0  0  0  0
    3.7167    3.4000    0.0000 C   0  0  0  0  0  0  0  0  0  0  0  0
   -5.3958   -3.5042    0.0000 C   0  0  0  0  0  0  0  0  0  0  0  0
   -5.8833   -2.6375    0.0000 C   0  0  0  0  0  0  0  0  0  0  0  0
  2  1  1  0  0  0  0
  3  8  1  0  0  0  0
  4  2  2  0  0  0  0
  5  2  1  0  0  0  0
  6  3  1  0  0  0  0
  7  1  1  0  0  0  0
  8 14  1  0  0  0  0
  9  6  1  0  0  0  0
 10  1  2  0  0  0  0
 11  4  1  0  0  0  0
 12  5  2  0  0  0  0
 13  7  1  0  0  0  0
 14 13  2  0  0  0  0
 15  3  2  0  0  0  0
 16 12  1  0  0  0  0
 17  9  1  0  0  0  0
 18 17  1  0  0  0  0
 19  4  1  0  0  0  0
 20  5  1  0  0  0  0
 21 22  1  0  0  0  0
 22 24  2  0  0  0  0
 23  9  2  0  0  0  0
 24 13  1  0  0  0  0
 25 17  2  0  0  0  0
 26 16  1  0  0  0  0
 27 23  1  0  0  0  0
 28 27  2  0  0  0  0
 11 16  2  0  0  0  0
 21  8  2  0  0  0  0
 28 25  1  0  0  0  0
M  END
> <#>
623

> <PLATE>
LAT008

> <ROW>
G

> <COL>
9

> <COORD>
G09

> <LATID>
LAT008G09

> <Supplier>
Chembridge

> <Suplier_CAT#>
5536268

> <Name>
Novel

> <Sec_Name>
156_G07

> <Concentration_(mM)>
2.5

> <IC50_(µM)>
>100

> <Yeast_Active?>
-

> <Pubchem_CID>
1368448

$$$$
