
  -ISIS-  08130814242D

 37 41  0  0  0  0  0  0  0  0999 V2000
   -1.5208    1.8708    0.0000 N   0  0  3  0  0  0  0  0  0  0  0  0
   -1.9458    2.5958    0.0000 C   0  0  0  0  0  0  0  0  0  0  0  0
   -1.9458    1.1500    0.0000 C   0  0  0  0  0  0  0  0  0  0  0  0
   -2.7833    1.1333    0.0000 C   0  0  0  0  0  0  0  0  0  0  0  0
   -2.7833    2.5958    0.0000 C   0  0  0  0  0  0  0  0  0  0  0  0
   -3.2000    1.8708    0.0000 C   0  0  0  0  0  0  0  0  0  0  0  0
    2.2792    2.5708    0.0000 N   0  0  3  0  0  0  0  0  0  0  0  0
    3.1167    2.5708    0.0000 C   0  0  0  0  0  0  0  0  0  0  0  0
   -0.6833    1.8708    0.0000 C   0  0  0  0  0  0  0  0  0  0  0  0
    3.5375    1.8500    0.0000 C   0  0  0  0  0  0  0  0  0  0  0  0
    0.6000    2.5958    0.0000 N   0  0  3  0  0  0  0  0  0  0  0  0
   -1.5208    3.3125    0.0000 O   0  0  0  0  0  0  0  0  0  0  0  0
   -1.5125    0.4458    0.0000 O   0  0  0  0  0  0  0  0  0  0  0  0
    3.5375   -1.0667    0.0000 C   0  0  0  0  0  0  0  0  0  0  0  0
    3.1167    1.1125    0.0000 C   0  0  0  0  0  0  0  0  0  0  0  0
    4.3792   -1.0667    0.0000 C   0  0  0  0  0  0  0  0  0  0  0  0
    1.8542    3.2958    0.0000 C   0  0  0  0  0  0  0  0  0  0  0  0
    1.8542    1.8500    0.0000 C   0  0  0  0  0  0  0  0  0  0  0  0
    3.5375    3.2958    0.0000 O   0  0  0  0  0  0  0  0  0  0  0  0
    3.1167   -0.3292    0.0000 C   0  0  0  0  0  0  0  0  0  0  0  0
   -0.2625    2.5958    0.0000 C   0  0  0  0  0  0  0  0  0  0  0  0
   -4.0458    1.8708    0.0000 C   0  0  0  0  0  0  0  0  0  0  0  0
    3.5375    0.3958    0.0000 C   0  0  0  0  0  0  0  0  0  0  0  0
    4.8000   -0.3500    0.0000 C   0  0  0  0  0  0  0  0  0  0  0  0
    1.0167    3.3125    0.0000 C   0  0  0  0  0  0  0  0  0  0  0  0
    1.0167    1.8500    0.0000 C   0  0  0  0  0  0  0  0  0  0  0  0
   -3.2000    3.3125    0.0000 C   0  0  0  0  0  0  0  0  0  0  0  0
   -3.2000    0.4125    0.0000 C   0  0  0  0  0  0  0  0  0  0  0  0
    4.3792    0.3708    0.0000 C   0  0  0  0  0  0  0  0  0  0  0  0
    3.1167   -1.8042    0.0000 O   0  0  0  0  0  0  0  0  0  0  0  0
    4.8000   -1.7875    0.0000 O   0  0  0  0  0  0  0  0  0  0  0  0
   -4.0458    0.4125    0.0000 C   0  0  0  0  0  0  0  0  0  0  0  0
   -4.0458    3.3125    0.0000 C   0  0  0  0  0  0  0  0  0  0  0  0
   -4.4708    1.1333    0.0000 C   0  0  0  0  0  0  0  0  0  0  0  0
   -4.4708    2.5958    0.0000 C   0  0  0  0  0  0  0  0  0  0  0  0
    3.5375   -2.5292    0.0000 C   0  0  0  0  0  0  0  0  0  0  0  0
    5.6292   -1.7875    0.0000 C   0  0  0  0  0  0  0  0  0  0  0  0
  2  1  1  0  0  0  0
  3  1  1  0  0  0  0
  4  3  1  0  0  0  0
  5  2  1  0  0  0  0
  6  4  2  0  0  0  0
  7 18  1  0  0  0  0
  8  7  1  0  0  0  0
  9  1  1  0  0  0  0
 10  8  1  0  0  0  0
 11 21  1  0  0  0  0
 12  2  2  0  0  0  0
 13  3  2  0  0  0  0
 14 20  2  0  0  0  0
 15 10  2  0  0  0  0
 16 24  2  0  0  0  0
 17 25  1  0  0  0  0
 18 26  1  0  0  0  0
 19  8  2  0  0  0  0
 20 23  1  0  0  0  0
 21  9  1  0  0  0  0
 22  6  1  0  0  0  0
 23 15  1  0  0  0  0
 24 29  1  0  0  0  0
 25 11  1  0  0  0  0
 26 11  1  0  0  0  0
 27  5  2  0  0  0  0
 28  4  1  0  0  0  0
 29 23  2  0  0  0  0
 30 14  1  0  0  0  0
 31 16  1  0  0  0  0
 32 28  2  0  0  0  0
 33 27  1  0  0  0  0
 34 32  1  0  0  0  0
 35 22  1  0  0  0  0
 36 30  1  0  0  0  0
 37 31  1  0  0  0  0
  5  6  1  0  0  0  0
  7 17  1  0  0  0  0
 22 34  2  0  0  0  0
 35 33  2  0  0  0  0
 16 14  1  0  0  0  0
M  END
> <#>
1029

> <PLATE>
LAT013

> <ROW>
E

> <COL>
10

> <COORD>
E10

> <LATID>
LAT013E10

> <Supplier>
Chembridge

> <Suplier_CAT#>
5749706

> <Name>
Novel

> <Sec_Name>
237_G05

> <Concentration_(mM)>
2.5

> <IC50_(µM)>
100

> <Yeast_Active?>
-

> <Pubchem_CID>
5725720

> <Comment>
SS11

$$$$
