
  -ISIS-  08130814242D

 17 19  0  0  0  0  0  0  0  0999 V2000
    0.1875    0.8625    0.0000 N   0  0  3  0  0  0  0  0  0  0  0  0
    0.7042    1.1833    0.0000 C   0  0  0  0  0  0  0  0  0  0  0  0
   -0.3958    1.2000    0.0000 C   0  0  0  0  0  0  0  0  0  0  0  0
    0.7042    1.8000    0.0000 C   0  0  0  0  0  0  0  0  0  0  0  0
    0.1875    2.1000    0.0000 C   0  0  0  0  0  0  0  0  0  0  0  0
   -0.3708    1.8000    0.0000 C   0  0  0  0  0  0  0  0  0  0  0  0
    0.1875    2.7208    0.0000 C   0  0  0  0  0  0  0  0  0  0  0  0
    1.2500    2.1000    0.0000 C   0  0  0  0  0  0  0  0  0  0  0  0
    1.2500    0.8625    0.0000 O   0  0  0  0  0  0  0  0  0  0  0  0
   -0.9708    0.9208    0.0000 O   0  0  0  0  0  0  0  0  0  0  0  0
    0.7042    3.0458    0.0000 C   0  0  0  0  0  0  0  0  0  0  0  0
    0.1875    0.2458    0.0000 O   0  0  0  0  0  0  0  0  0  0  0  0
    1.2667    2.7083    0.0000 C   0  0  0  0  0  0  0  0  0  0  0  0
   -0.8958    2.1208    0.0000 C   0  0  0  0  0  0  0  0  0  0  0  0
    0.7042    3.6708    0.0000 Br  0  0  0  0  0  0  0  0  0  0  0  0
   -0.3500    3.0458    0.0000 C   0  0  0  0  0  0  0  0  0  0  0  0
   -0.8958    2.7458    0.0000 C   0  0  0  0  0  0  0  0  0  0  0  0
  2  1  1  0  0  0  0
  3  1  1  0  0  0  0
  4  2  1  0  0  0  0
  5  6  1  0  0  0  0
  6  3  1  0  0  0  0
  7  5  2  0  0  0  0
  8  4  2  0  0  0  0
  9  2  2  0  0  0  0
 10  3  2  0  0  0  0
 11  7  1  0  0  0  0
 12  1  1  0  0  0  0
 13  8  1  0  0  0  0
 14  6  2  0  0  0  0
 15 11  1  0  0  0  0
 16 17  2  0  0  0  0
 17 14  1  0  0  0  0
  5  4  1  0  0  0  0
 11 13  2  0  0  0  0
  7 16  1  0  0  0  0
M  END
> <#>
793

> <PLATE>
LAT010

> <ROW>
A

> <COL>
11

> <COORD>
A11

> <LATID>
LAT010A11

> <Supplier>
Chembridge

> <Suplier_CAT#>
5568285

> <Name>
Novel

> <Sec_Name>
176_C08

> <Concentration_(mM)>
2.5

> <IC50_(µM)>
54

> <Yeast_Active?>
-

> <Pubchem_CID>
708429

$$$$
