
  -ISIS-  08130814242D

 20 21  0  0  0  0  0  0  0  0999 V2000
    2.1042    1.8500    0.0000 C   0  0  0  0  0  0  0  0  0  0  0  0
    2.1042    2.8833    0.0000 N   0  3  0  0  0  0  0  0  0  0  0  0
    1.2042    0.2958    0.0000 C   0  0  0  0  0  0  0  0  0  0  0  0
    1.2042    1.3333    0.0000 C   0  0  0  0  0  0  0  0  0  0  0  0
    0.3042   -0.2500    0.0000 C   0  0  0  0  0  0  0  0  0  0  0  0
    3.0042    1.3333    0.0000 C   0  0  0  0  0  0  0  0  0  0  0  0
    2.1042   -0.2500    0.0000 C   0  0  0  0  0  0  0  0  0  0  0  0
    3.0042    0.2958    0.0000 C   0  0  0  0  0  0  0  0  0  0  0  0
    3.0000    3.4000    0.0000 O   0  5  0  0  0  0  0  0  0  0  0  0
    1.2167    3.3833    0.0000 O   0  0  0  0  0  0  0  0  0  0  0  0
    0.3042   -1.2875    0.0000 O   0  0  0  0  0  0  0  0  0  0  0  0
   -0.6125    0.2708    0.0000 C   0  0  0  0  0  0  0  0  0  0  0  0
    2.1042   -1.2875    0.0000 O   0  0  0  0  0  0  0  0  0  0  0  0
    3.9292    1.8500    0.0000 O   0  0  0  0  0  0  0  0  0  0  0  0
   -0.6125    1.3125    0.0000 C   0  0  0  0  0  0  0  0  0  0  0  0
   -1.5125   -0.2500    0.0000 C   0  0  0  0  0  0  0  0  0  0  0  0
    3.9292    2.8833    0.0000 C   0  0  0  0  0  0  0  0  0  0  0  0
   -2.4125    0.2708    0.0000 C   0  0  0  0  0  0  0  0  0  0  0  0
   -1.5125    1.8333    0.0000 C   0  0  0  0  0  0  0  0  0  0  0  0
   -2.4125    1.3125    0.0000 C   0  0  0  0  0  0  0  0  0  0  0  0
  2  1  1  0  0  0  0
  3  4  1  0  0  0  0
  4  1  2  0  0  0  0
  5  3  1  0  0  0  0
  6  1  1  0  0  0  0
  7  8  1  0  0  0  0
  8  6  2  0  0  0  0
  9  2  1  0  0  0  0
 10  2  2  0  0  0  0
 11  5  2  0  0  0  0
 12  5  1  0  0  0  0
 13  7  1  0  0  0  0
 14  6  1  0  0  0  0
 15 12  2  0  0  0  0
 16 12  1  0  0  0  0
 17 14  1  0  0  0  0
 18 16  2  0  0  0  0
 19 15  1  0  0  0  0
 20 18  1  0  0  0  0
  7  3  2  0  0  0  0
 20 19  2  0  0  0  0
M  CHG  2   2   1   9  -1
M  END
> <#>
1114

> <PLATE>
LAT014

> <ROW>
B

> <COL>
11

> <COORD>
B11

> <LATID>
LAT014B11

> <Supplier>
Chembridge

> <Suplier_CAT#>
5302624

> <Name>
Novel

> <Concentration_(mM)>
2.5

> <IC50_(µM)>
>100

> <Yeast_Active?>
-

> <Pubchem_CID>
793461

$$$$
