
  -ISIS-  08130814242D

 13 12  0  0  0  0  0  0  0  0999 V2000
    1.5000   -1.0167    0.0000 P   0  0  3  0  0  0  0  0  0  0  0  0
    1.4917   -0.1917    0.0000 O   0  0  0  0  0  0  0  0  0  0  0  0
    1.4667   -1.8000    0.0000 S   0  0  0  0  0  0  0  0  0  0  0  0
    0.7875   -0.6125    0.0000 S   0  0  0  0  0  0  0  0  0  0  0  0
    2.2917   -1.2292    0.0000 O   0  0  0  0  0  0  0  0  0  0  0  0
    0.7542   -2.2125    0.0000 C   0  0  0  0  0  0  0  0  0  0  0  0
    0.0750   -1.0250    0.0000 C   0  0  0  0  0  0  0  0  0  0  0  0
    2.8750   -0.6417    0.0000 C   0  0  0  0  0  0  0  0  0  0  0  0
    0.0417   -1.8042    0.0000 C   0  0  0  0  0  0  0  0  0  0  0  0
   -0.6375   -0.6167    0.0000 C   0  0  0  0  0  0  0  0  0  0  0  0
    3.6750   -0.8542    0.0000 C   0  0  0  0  0  0  0  0  0  0  0  0
   -0.6708   -2.2167    0.0000 C   0  0  0  0  0  0  0  0  0  0  0  0
   -1.3500   -1.0292    0.0000 C   0  0  0  0  0  0  0  0  0  0  0  0
  2  1  2  0  0  0  0
  3  1  1  0  0  0  0
  4  1  1  0  0  0  0
  5  1  1  0  0  0  0
  6  3  1  0  0  0  0
  7  4  1  0  0  0  0
  8  5  1  0  0  0  0
  9  6  1  0  0  0  0
 10  7  1  0  0  0  0
 11  8  1  0  0  0  0
 12  9  1  0  0  0  0
 13 10  1  0  0  0  0
M  END
> <#>
192

> <PLATE>
LAT003

> <ROW>
H

> <COL>
5

> <COORD>
H05

> <LATID>
LAT003H05

> <Supplier>
Microsource

> <Suplier_CAT#>
00330065

> <Name>
Ethoprop

> <Concentration_(mM)>
2.5

> <IC50_(µM)>
33

> <Yeast_Active?>
-

> <Pubchem_CID>
3289

> <Description>
Insecticide, Nematocide

$$$$
