
  -ISIS-  08130814242D

 21 24  0  0  0  0  0  0  0  0999 V2000
   -0.2208    1.5333    0.0000 C   0  0  0  0  0  0  0  0  0  0  0  0
   -0.6000    2.0708    0.0000 N   0  0  0  0  0  0  0  0  0  0  0  0
   -0.6000    0.9958    0.0000 N   0  0  0  0  0  0  0  0  0  0  0  0
    1.6667    0.8500    0.0000 C   0  0  0  0  0  0  0  0  0  0  0  0
    2.7042    1.0208    0.0000 N   0  0  0  0  0  0  0  0  0  0  0  0
    2.1292    1.2500    0.0000 C   0  0  0  0  0  0  0  0  0  0  0  0
   -1.2208    1.8708    0.0000 C   0  0  0  0  0  0  0  0  0  0  0  0
   -1.2208    1.1958    0.0000 C   0  0  0  0  0  0  0  0  0  0  0  0
    2.3667    0.0333    0.0000 C   0  0  0  0  0  0  0  0  0  0  0  0
    0.9292    1.7500    0.0000 N   0  0  0  0  0  0  0  0  0  0  0  0
    2.8375    0.4333    0.0000 C   0  0  0  0  0  0  0  0  0  0  0  0
    0.2875    1.9833    0.0000 N   0  0  0  0  0  0  0  0  0  0  0  0
    1.0500    1.0708    0.0000 C   0  0  0  0  0  0  0  0  0  0  0  0
    2.4875   -0.5792    0.0000 C   0  0  0  0  0  0  0  0  0  0  0  0
   -1.8000    2.1958    0.0000 C   0  0  0  0  0  0  0  0  0  0  0  0
   -1.8000    0.8708    0.0000 C   0  0  0  0  0  0  0  0  0  0  0  0
    3.4167    0.2125    0.0000 C   0  0  0  0  0  0  0  0  0  0  0  0
    3.0667   -0.8000    0.0000 C   0  0  0  0  0  0  0  0  0  0  0  0
   -2.3833    1.2125    0.0000 C   0  0  0  0  0  0  0  0  0  0  0  0
   -2.3833    1.8500    0.0000 C   0  0  0  0  0  0  0  0  0  0  0  0
    3.5375   -0.3875    0.0000 C   0  0  0  0  0  0  0  0  0  0  0  0
  2  1  2  0  0  0  0
  3  1  1  0  0  0  0
  4 13  1  0  0  0  0
  5  6  1  0  0  0  0
  6  4  2  0  0  0  0
  7  2  1  0  0  0  0
  8  3  1  0  0  0  0
  9  4  1  0  0  0  0
 10 12  1  0  0  0  0
 11  9  2  0  0  0  0
 12  1  1  0  0  0  0
 13 10  2  0  0  0  0
 14  9  1  0  0  0  0
 15  7  1  0  0  0  0
 16  8  1  0  0  0  0
 17 11  1  0  0  0  0
 18 14  2  0  0  0  0
 19 16  2  0  0  0  0
 20 15  2  0  0  0  0
 21 18  1  0  0  0  0
  7  8  2  0  0  0  0
 20 19  1  0  0  0  0
  5 11  1  0  0  0  0
 17 21  2  0  0  0  0
M  END
> <#>
613

> <PLATE>
LAT008

> <ROW>
E

> <COL>
8

> <COORD>
E08

> <LATID>
LAT008E08

> <Supplier>
Chembridge

> <Suplier_CAT#>
5533476

> <Name>
Novel

> <Sec_Name>
155_E04

> <Concentration_(mM)>
2.5

> <IC50_(µM)>
>100

> <Yeast_Active?>
-

> <Pubchem_CID>
NULL

$$$$
