
  -ISIS-  08130814242D

 11 11  0  0  0  0  0  0  0  0999 V2000
    0.0443   -4.2052    0.0000 C   0  0  0  0  0  0  0  0  0  0  0  0
    1.2943   -4.2052    0.0000 C   0  0  0  0  0  0  0  0  0  0  0  0
    1.9193   -3.1227    0.0000 C   0  0  0  0  0  0  0  0  0  0  0  0
    3.1693   -3.1227    0.0000 C   0  0  0  0  0  0  0  0  0  0  0  0
    3.7943   -4.2052    0.0000 C   0  0  0  0  0  0  0  0  0  0  0  0
    3.1693   -5.2877    0.0000 C   0  0  0  0  0  0  0  0  0  0  0  0
    1.9193   -5.2877    0.0000 C   0  0  0  0  0  0  0  0  0  0  0  0
   -0.5807   -3.1227    0.0000 O   0  0  0  0  0  0  0  0  0  0  0  0
   -0.5807   -5.2877    0.0000 O   0  0  0  0  0  0  0  0  0  0  0  0
    5.0443   -4.2052    0.0000 C   0  0  0  0  0  0  0  0  0  0  0  0
    5.6693   -5.2877    0.0000 N   0  0  0  0  0  0  0  0  0  0  0  0
  1  2  1  0  0  0  0
  2  3  1  0  0  0  0
  3  4  2  0  0  0  0
  4  5  1  0  0  0  0
  5  6  2  0  0  0  0
  6  7  1  0  0  0  0
  2  7  2  0  0  0  0
  1  8  2  0  0  0  0
  1  9  1  0  0  0  0
 10 11  1  0  0  0  0
  5 10  1  0  0  0  0
M  END
> <#>
321

> <PLATE>
LAT005

> <ROW>
A

> <COL>
2

> <COORD>
A02

> <LATID>
LAT005A02

> <Supplier>
Aldrich

> <Suplier_CAT#>
283746

> <Name>
4-(Aminomethyl)Benzoic Acid

> <Concentration_(mM)>
2.5

> <IC50_(µM)>
inactive

> <Yeast_Active?>
-

> <Pubchem_CID>
65526

$$$$
