
  -ISIS-  08130814242D

 29 32  0  0  0  0  0  0  0  0999 V2000
   -3.6208    1.1833    0.0000 C   0  0  0  0  0  0  0  0  0  0  0  0
   -3.0625    1.2625    0.0000 N   0  0  3  0  0  0  0  0  0  0  0  0
   -1.9458    1.4458    0.0000 N   0  0  3  0  0  0  0  0  0  0  0  0
   -1.3625    1.5208    0.0000 C   0  0  3  0  0  0  0  0  0  0  0  0
   -3.8458    0.6458    0.0000 C   0  0  0  0  0  0  0  0  0  0  0  0
   -2.8625    1.7833    0.0000 C   0  0  0  0  0  0  0  0  0  0  0  0
   -2.7000    0.8208    0.0000 C   0  0  0  0  0  0  0  0  0  0  0  0
   -2.3000    1.8833    0.0000 C   0  0  0  0  0  0  0  0  0  0  0  0
   -2.1458    0.9000    0.0000 C   0  0  0  0  0  0  0  0  0  0  0  0
   -3.9625    1.6208    0.0000 O   0  0  0  0  0  0  0  0  0  0  0  0
   -1.1625    2.0625    0.0000 C   0  0  0  0  0  0  0  0  0  0  0  0
   -1.0208    1.0833    0.0000 C   0  0  0  0  0  0  0  0  0  0  0  0
   -4.4083    0.5833    0.0000 C   0  0  0  0  0  0  0  0  0  0  0  0
   -3.5000    0.1833    0.0000 C   0  0  0  0  0  0  0  0  0  0  0  0
   -4.2833   -0.4000    0.0000 C   0  0  0  0  0  0  0  0  0  0  0  0
   -4.6208    0.0458    0.0000 C   0  0  0  0  0  0  0  0  0  0  0  0
   -3.7208   -0.3375    0.0000 C   0  0  0  0  0  0  0  0  0  0  0  0
   -4.5000   -0.9167    0.0000 O   0  0  0  0  0  0  0  0  0  0  0  0
   -0.6000    2.1458    0.0000 C   0  0  0  0  0  0  0  0  0  0  0  0
   -1.2208    0.5625    0.0000 C   0  0  0  0  0  0  0  0  0  0  0  0
   -0.4625    1.1833    0.0000 C   0  0  0  0  0  0  0  0  0  0  0  0
   -1.5000    2.5000    0.0000 C   0  0  0  0  0  0  0  0  0  0  0  0
   -4.1625   -1.3792    0.0000 C   0  0  0  0  0  0  0  0  0  0  0  0
   -0.8625    0.1208    0.0000 C   0  0  0  0  0  0  0  0  0  0  0  0
   -0.1000    0.7208    0.0000 C   0  0  0  0  0  0  0  0  0  0  0  0
   -1.2833    3.0208    0.0000 C   0  0  0  0  0  0  0  0  0  0  0  0
   -0.3833    2.6625    0.0000 C   0  0  0  0  0  0  0  0  0  0  0  0
   -0.3000    0.2000    0.0000 C   0  0  0  0  0  0  0  0  0  0  0  0
   -0.7208    3.1208    0.0000 C   0  0  0  0  0  0  0  0  0  0  0  0
  2  1  1  0  0  0  0
  3  9  1  0  0  0  0
  4  3  1  0  0  0  0
  5  1  1  0  0  0  0
  6  2  1  0  0  0  0
  7  2  1  0  0  0  0
  8  6  1  0  0  0  0
  9  7  1  0  0  0  0
 10  1  2  0  0  0  0
 11  4  1  0  0  0  0
 12  4  1  0  0  0  0
 13  5  2  0  0  0  0
 14  5  1  0  0  0  0
 15 17  1  0  0  0  0
 16 13  1  0  0  0  0
 17 14  2  0  0  0  0
 18 15  1  0  0  0  0
 19 11  1  0  0  0  0
 20 12  1  0  0  0  0
 21 12  2  0  0  0  0
 22 11  2  0  0  0  0
 23 18  1  0  0  0  0
 24 20  2  0  0  0  0
 25 21  1  0  0  0  0
 26 22  1  0  0  0  0
 27 19  2  0  0  0  0
 28 25  2  0  0  0  0
 29 26  2  0  0  0  0
 15 16  2  0  0  0  0
  8  3  1  0  0  0  0
 28 24  1  0  0  0  0
 29 27  1  0  0  0  0
M  END
> <#>
721

> <PLATE>
LAT010

> <ROW>
A

> <COL>
2

> <COORD>
A02

> <LATID>
LAT010A02

> <Supplier>
Chembridge

> <Suplier_CAT#>
5565055

> <Name>
Novel

> <Sec_Name>
171_B10

> <Concentration_(mM)>
2.5

> <IC50_(µM)>
20

> <Yeast_Active?>
-

> <Pubchem_CID>
1068855

$$$$
