
  -ISIS-  08130814242D

 21 22  0  0  0  0  0  0  0  0999 V2000
    3.5042   -2.1750    0.0000 S   0  0  3  0  0  0  0  0  0  0  0  0
    4.5792   -5.8125    0.0000 N   0  3  0  0  0  0  0  0  0  0  0  0
    4.2542   -2.5167    0.0000 N   0  0  0  0  0  0  0  0  0  0  0  0
    5.0792   -3.6792    0.0000 C   0  0  0  0  0  0  0  0  0  0  0  0
    4.3292   -3.3417    0.0000 C   0  0  0  0  0  0  0  0  0  0  0  0
    4.4917   -4.9875    0.0000 C   0  0  0  0  0  0  0  0  0  0  0  0
    5.1667   -4.5000    0.0000 C   0  0  0  0  0  0  0  0  0  0  0  0
    3.9042   -6.2917    0.0000 O   0  5  0  0  0  0  0  0  0  0  0  0
    5.7500   -3.1917    0.0000 O   0  0  0  0  0  0  0  0  0  0  0  0
    2.7500   -1.8250    0.0000 O   0  0  0  0  0  0  0  0  0  0  0  0
    3.8542   -1.4167    0.0000 O   0  0  0  0  0  0  0  0  0  0  0  0
    5.3375   -6.1542    0.0000 O   0  0  0  0  0  0  0  0  0  0  0  0
    3.6542   -3.8292    0.0000 C   0  0  0  0  0  0  0  0  0  0  0  0
    3.7417   -4.6542    0.0000 C   0  0  0  0  0  0  0  0  0  0  0  0
    3.1542   -2.9250    0.0000 C   0  0  0  0  0  0  0  0  0  0  0  0
    6.5042   -3.5292    0.0000 C   0  0  0  0  0  0  0  0  0  0  0  0
    7.1750   -3.0417    0.0000 C   0  0  0  0  0  0  0  0  0  0  0  0
    6.5917   -4.3500    0.0000 C   0  0  0  0  0  0  0  0  0  0  0  0
    7.3417   -4.6875    0.0000 C   0  0  0  0  0  0  0  0  0  0  0  0
    7.9292   -3.3792    0.0000 C   0  0  0  0  0  0  0  0  0  0  0  0
    8.0167   -4.1917    0.0000 C   0  0  0  0  0  0  0  0  0  0  0  0
  2  6  1  0  0  0  0
  3  1  1  0  0  0  0
  4  5  1  0  0  0  0
  5  3  1  0  0  0  0
  6 14  2  0  0  0  0
  7  4  2  0  0  0  0
  8  2  1  0  0  0  0
  9  4  1  0  0  0  0
 10  1  2  0  0  0  0
 11  1  2  0  0  0  0
 12  2  2  0  0  0  0
 13  5  2  0  0  0  0
 14 13  1  0  0  0  0
 15  1  1  0  0  0  0
 16  9  1  0  0  0  0
 17 16  2  0  0  0  0
 18 16  1  0  0  0  0
 19 18  2  0  0  0  0
 20 17  1  0  0  0  0
 21 19  1  0  0  0  0
  7  6  1  0  0  0  0
 21 20  2  0  0  0  0
M  CHG  2   2   1   8  -1
M  END
> <#>
76

> <PLATE>
LAT001

> <ROW>
D

> <COL>
11

> <COORD>
D11

> <LATID>
LAT001D11

> <Supplier>
Microsource

> <Suplier_CAT#>
01503231

> <Name>
Nimesulide

> <Concentration_(mM)>
2.5

> <IC50_(µM)>
21

> <Yeast_Active?>
-

> <Pubchem_CID>
4495

> <Description>
Antiinflammatory

$$$$
