
  -ISIS-  08130814242D

 31 35  0  0  0  0  0  0  0  0999 V2000
    6.5167   -3.0417    0.0000 C   0  0  0  0  0  0  0  0  0  0  0  0
    5.8042   -4.2792    0.0000 C   0  0  0  0  0  0  0  0  0  0  0  0
    5.0917   -3.8667    0.0000 C   0  0  1  0  0  0  0  0  0  0  0  0
    6.5167   -3.8667    0.0000 C   0  0  0  0  0  0  0  0  0  0  0  0
    7.2292   -2.6292    0.0000 C   0  0  0  0  0  0  0  0  0  0  0  0
    4.3792   -4.2792    0.0000 C   0  0  0  0  0  0  0  0  0  0  0  0
    5.8042   -2.6292    0.0000 O   0  0  0  0  0  0  0  0  0  0  0  0
    5.0917   -3.0417    0.0000 C   0  0  2  0  0  0  0  0  0  0  0  0
    3.6625   -3.8667    0.0000 C   0  0  0  0  0  0  0  0  0  0  0  0
    8.5667   -2.4792    0.0000 O   0  0  0  0  0  0  0  0  0  0  0  0
    7.9500   -3.0417    0.0000 C   0  0  0  0  0  0  0  0  0  0  0  0
    7.4042   -1.8167    0.0000 C   0  0  0  0  0  0  0  0  0  0  0  0
    4.3792   -5.1042    0.0000 C   0  0  0  0  0  0  0  0  0  0  0  0
    8.2250   -1.7375    0.0000 C   0  0  3  0  0  0  0  0  0  0  0  0
    3.6625   -3.0417    0.0000 O   0  0  0  0  0  0  0  0  0  0  0  0
    2.9417   -4.2792    0.0000 C   0  0  0  0  0  0  0  0  0  0  0  0
    7.2292   -4.2792    0.0000 C   0  0  0  0  0  0  0  0  0  0  0  0
    3.6667   -5.5167    0.0000 C   0  0  0  0  0  0  0  0  0  0  0  0
    2.9417   -5.1042    0.0000 C   0  0  0  0  0  0  0  0  0  0  0  0
    4.3792   -2.6292    0.0000 C   0  0  0  0  0  0  0  0  0  0  0  0
    5.8042   -5.1042    0.0000 O   0  0  0  0  0  0  0  0  0  0  0  0
    7.9500   -3.8667    0.0000 C   0  0  0  0  0  0  0  0  0  0  0  0
    8.6375   -1.0042    0.0000 C   0  0  3  0  0  0  0  0  0  0  0  0
    3.6750   -6.3417    0.0000 O   0  0  0  0  0  0  0  0  0  0  0  0
    2.2167   -5.5250    0.0000 O   0  0  0  0  0  0  0  0  0  0  0  0
    9.4667   -0.9917    0.0000 C   0  0  0  0  0  0  0  0  0  0  0  0
    8.2167   -0.3000    0.0000 C   0  0  0  0  0  0  0  0  0  0  0  0
    4.3917   -6.7542    0.0000 C   0  0  0  0  0  0  0  0  0  0  0  0
    1.5000   -5.1042    0.0000 C   0  0  0  0  0  0  0  0  0  0  0  0
    5.0917   -4.6917    0.0000 H   0  0  0  0  0  0  0  0  0  0  0  0
    5.0917   -2.2125    0.0000 H   0  0  0  0  0  0  0  0  0  0  0  0
  2  4  1  0  0  0  0
  3  8  1  0  0  0  0
  4  1  2  0  0  0  0
  5  1  1  0  0  0  0
  6  3  1  0  0  0  0
  7  1  1  0  0  0  0
  8  7  1  0  0  0  0
  9 15  1  0  0  0  0
 10 11  1  0  0  0  0
 11  5  2  0  0  0  0
 12  5  1  0  0  0  0
 13  6  1  0  0  0  0
 14 12  1  0  0  0  0
 15 20  1  0  0  0  0
 16  9  1  0  0  0  0
 17  4  1  0  0  0  0
 18 13  2  0  0  0  0
 19 16  2  0  0  0  0
 20  8  1  0  0  0  0
 21  2  2  0  0  0  0
 22 11  1  0  0  0  0
 23 14  1  0  0  0  0
 24 18  1  0  0  0  0
 25 19  1  0  0  0  0
 26 23  1  0  0  0  0
 27 23  1  0  0  0  0
 28 24  1  0  0  0  0
 29 25  1  0  0  0  0
  3 30  1  6  0  0  0
  8 31  1  6  0  0  0
  3  2  1  0  0  0  0
 14 10  1  0  0  0  0
 22 17  2  0  0  0  0
  6  9  2  0  0  0  0
 18 19  1  0  0  0  0
M  END
> <#>
19

> <PLATE>
LAT001

> <ROW>
C

> <COL>
4

> <COORD>
C04

> <LATID>
LAT001C04

> <Supplier>
Microsource

> <Suplier_CAT#>
00201449

> <Name>
Dihydrorotenone

> <Concentration_(mM)>
2.5

> <IC50_(µM)>
18

> <Yeast_Active?>
-

> <Pubchem_CID>
73068

$$$$
