
  -ISIS-  08130814242D

 14 15  0  0  0  0  0  0  0  0999 V2000
    0.2167    2.5958    0.0000 C   0  0  0  0  0  0  0  0  0  0  0  0
    0.2167    1.8708    0.0000 C   0  0  0  0  0  0  0  0  0  0  0  0
    0.8417    1.5083    0.0000 C   0  0  0  0  0  0  0  0  0  0  0  0
    0.8417    2.9583    0.0000 O   0  0  0  0  0  0  0  0  0  0  0  0
    1.4750    2.5958    0.0000 C   0  0  0  0  0  0  0  0  0  0  0  0
    1.4750    1.8708    0.0000 C   0  0  0  0  0  0  0  0  0  0  0  0
   -0.4208    2.9583    0.0000 C   0  0  0  0  0  0  0  0  0  0  0  0
   -0.4208    1.5083    0.0000 C   0  0  0  0  0  0  0  0  0  0  0  0
   -1.0375    1.8708    0.0000 C   0  0  0  0  0  0  0  0  0  0  0  0
   -1.0375    2.5958    0.0000 C   0  0  0  0  0  0  0  0  0  0  0  0
    2.1000    2.9583    0.0000 O   0  0  0  0  0  0  0  0  0  0  0  0
   -1.6625    1.5083    0.0000 O   0  0  0  0  0  0  0  0  0  0  0  0
   -1.6708    2.9583    0.0000 O   0  0  0  0  0  0  0  0  0  0  0  0
    0.8417    0.7833    0.0000 C   0  0  0  0  0  0  0  0  0  0  0  0
  2  1  2  0  0  0  0
  3  2  1  0  0  0  0
  4  1  1  0  0  0  0
  5  4  1  0  0  0  0
  6  5  1  0  0  0  0
  7  1  1  0  0  0  0
  8  2  1  0  0  0  0
  9 10  1  0  0  0  0
 10  7  2  0  0  0  0
 11  5  2  0  0  0  0
 12  9  1  0  0  0  0
 13 10  1  0  0  0  0
 14  3  1  0  0  0  0
  9  8  2  0  0  0  0
  6  3  2  0  0  0  0
M  END
> <#>
36

> <PLATE>
LAT001

> <ROW>
D

> <COL>
6

> <COORD>
D06

> <LATID>
LAT001D06

> <Supplier>
Microsource

> <Suplier_CAT#>
01500729

> <Name>
4-Methylesculetin

> <Concentration_(mM)>
2.5

> <IC50_(µM)>
0.77

> <Yeast_Active?>
-

> <Pubchem_CID>
5319502

> <Source>
Analog of esculetin

$$$$
