
  -ISIS-  08130814242D

 17 17  0  0  0  0  0  0  0  0999 V2000
    4.1542   -0.0292    0.0000 C   0  0  0  0  0  0  0  0  0  0  0  0
    1.8167    1.3125    0.0000 N   0  0  0  0  0  0  0  0  0  0  0  0
    0.2875    1.3208    0.0000 C   0  0  0  0  0  0  0  0  0  0  0  0
    2.5792   -0.0292    0.0000 C   0  0  3  0  0  0  0  0  0  0  0  0
    4.9000    1.3625    0.0000 O   0  0  0  0  0  0  0  0  0  0  0  0
   -0.5000   -0.0292    0.0000 O   0  0  0  0  0  0  0  0  0  0  0  0
   -2.0708    2.6958    0.0000 O   0  0  0  0  0  0  0  0  0  0  0  0
   -0.5125    2.6958    0.0000 C   0  0  0  0  0  0  0  0  0  0  0  0
   -2.8458    1.3458    0.0000 C   0  0  0  0  0  0  0  0  0  0  0  0
    4.9375   -1.3542    0.0000 O   0  0  0  0  0  0  0  0  0  0  0  0
   -4.4083   -1.3500    0.0000 C   0  0  0  0  0  0  0  0  0  0  0  0
   -5.1708   -2.6875    0.0000 Br  0  0  0  0  0  0  0  0  0  0  0  0
   -2.0708   -0.0042    0.0000 C   0  0  0  0  0  0  0  0  0  0  0  0
   -4.4083    1.3458    0.0000 C   0  0  0  0  0  0  0  0  0  0  0  0
   -5.1958   -0.0042    0.0000 C   0  0  0  0  0  0  0  0  0  0  0  0
   -2.8458   -1.3500    0.0000 C   0  0  0  0  0  0  0  0  0  0  0  0
    1.8375   -1.3667    0.0000 C   0  0  0  0  0  0  0  0  0  0  0  0
  2  4  1  0  0  0  0
  3  2  1  0  0  0  0
  4  1  1  0  0  0  0
  5  1  2  0  0  0  0
  6  3  2  0  0  0  0
  7  8  1  0  0  0  0
  8  3  1  0  0  0  0
  9  7  1  0  0  0  0
 10  1  1  0  0  0  0
 11 15  1  0  0  0  0
 12 11  1  0  0  0  0
 13  9  2  0  0  0  0
 14  9  1  0  0  0  0
 15 14  2  0  0  0  0
 16 13  1  0  0  0  0
 17  4  1  0  0  0  0
 16 11  2  0  0  0  0
M  END
> <#>
605

> <PLATE>
LAT008

> <ROW>
E

> <COL>
7

> <COORD>
E07

> <LATID>
LAT008E07

> <Supplier>
Chembridge

> <Suplier_CAT#>
5521890

> <Name>
Novel

> <Sec_Name>
145_C02

> <Concentration_(mM)>
2.5

> <IC50_(µM)>
3

> <Yeast_Active?>
-

> <Pubchem_CID>
716449

$$$$
