
  -ISIS-  08130814242D

 31 34  0  0  0  0  0  0  0  0999 V2000
    2.2500    1.0708    0.0000 C   0  0  0  0  0  0  0  0  0  0  0  0
   -1.7708   -0.0292    0.0000 C   0  0  0  0  0  0  0  0  0  0  0  0
   -2.6500   -0.0292    0.0000 C   0  0  3  0  0  0  0  0  0  0  0  0
    1.4167    0.7708    0.0000 O   0  0  0  0  0  0  0  0  0  0  0  0
    2.2042    1.9708    0.0000 C   0  0  0  0  0  0  0  0  0  0  0  0
    0.8667    1.4833    0.0000 C   0  0  0  0  0  0  0  0  0  0  0  0
    2.9667    0.5708    0.0000 C   0  0  0  0  0  0  0  0  0  0  0  0
   -0.4500    0.7208    0.0000 N   0  0  0  0  0  0  0  0  0  0  0  0
    1.3542    2.1958    0.0000 C   0  0  0  0  0  0  0  0  0  0  0  0
   -0.0125    1.4833    0.0000 C   0  0  0  0  0  0  0  0  0  0  0  0
   -1.3333    0.7208    0.0000 N   0  0  0  0  0  0  0  0  0  0  0  0
   -1.3458   -0.8000    0.0000 O   0  0  0  0  0  0  0  0  0  0  0  0
    2.9000   -0.3167    0.0000 C   0  0  0  0  0  0  0  0  0  0  0  0
   -2.6500    0.8500    0.0000 C   0  0  0  0  0  0  0  0  0  0  0  0
   -2.6500   -0.9375    0.0000 C   0  0  0  0  0  0  0  0  0  0  0  0
   -3.5500   -0.0292    0.0000 O   0  0  0  0  0  0  0  0  0  0  0  0
    3.6292   -0.8375    0.0000 C   0  0  0  0  0  0  0  0  0  0  0  0
    3.5167   -1.7375    0.0000 Cl  0  0  0  0  0  0  0  0  0  0  0  0
    3.7792    0.9500    0.0000 C   0  0  0  0  0  0  0  0  0  0  0  0
    4.5167    0.4458    0.0000 C   0  0  0  0  0  0  0  0  0  0  0  0
   -1.8958    1.3000    0.0000 C   0  0  0  0  0  0  0  0  0  0  0  0
   -3.4125   -1.3792    0.0000 C   0  0  0  0  0  0  0  0  0  0  0  0
   -1.8833   -1.3792    0.0000 C   0  0  0  0  0  0  0  0  0  0  0  0
   -3.4458    1.2958    0.0000 C   0  0  0  0  0  0  0  0  0  0  0  0
    4.4500   -0.4542    0.0000 C   0  0  0  0  0  0  0  0  0  0  0  0
   -1.8625   -2.2792    0.0000 C   0  0  0  0  0  0  0  0  0  0  0  0
   -3.4458    2.2083    0.0000 C   0  0  0  0  0  0  0  0  0  0  0  0
   -1.9125    2.2083    0.0000 C   0  0  0  0  0  0  0  0  0  0  0  0
   -3.3958   -2.2792    0.0000 C   0  0  0  0  0  0  0  0  0  0  0  0
   -2.6708    2.6333    0.0000 C   0  0  0  0  0  0  0  0  0  0  0  0
   -2.6333   -2.7042    0.0000 C   0  0  0  0  0  0  0  0  0  0  0  0
  2 11  1  0  0  0  0
  3  2  1  0  0  0  0
  4  1  1  0  0  0  0
  5  1  2  0  0  0  0
  6  4  1  0  0  0  0
  7  1  1  0  0  0  0
  8 10  2  0  0  0  0
  9  5  1  0  0  0  0
 10  6  1  0  0  0  0
 11  8  1  0  0  0  0
 12  2  2  0  0  0  0
 13  7  1  0  0  0  0
 14  3  1  0  0  0  0
 15  3  1  0  0  0  0
 16  3  1  0  0  0  0
 17 13  2  0  0  0  0
 18 17  1  0  0  0  0
 19  7  2  0  0  0  0
 20 19  1  0  0  0  0
 21 14  1  0  0  0  0
 22 15  1  0  0  0  0
 23 15  2  0  0  0  0
 24 14  2  0  0  0  0
 25 20  2  0  0  0  0
 26 23  1  0  0  0  0
 27 24  1  0  0  0  0
 28 21  2  0  0  0  0
 29 22  2  0  0  0  0
 30 27  2  0  0  0  0
 31 26  2  0  0  0  0
  9  6  2  0  0  0  0
 25 17  1  0  0  0  0
 31 29  1  0  0  0  0
 30 28  1  0  0  0  0
M  END
> <#>
996

> <PLATE>
LAT013

> <ROW>
D

> <COL>
6

> <COORD>
D06

> <LATID>
LAT013D06

> <Supplier>
Chembridge

> <Suplier_CAT#>
5174764

> <Name>
Novel

> <Concentration_(mM)>
2.5

> <IC50_(µM)>
inactive

> <Yeast_Active?>
-

> <Pubchem_CID>
2831947

$$$$
