
  -ISIS-  08130814242D

 62 68  0  0  0  0  0  0  0  0999 V2000
    9.6167   -3.4250    0.0000 C   0  0  2  0  0  0  0  0  0  0  0  0
    9.7625   -4.7625    0.0000 C   0  0  1  0  0  0  0  0  0  0  0  0
    7.9167   -4.1125    0.0000 C   0  0  2  0  0  0  0  0  0  0  0  0
    9.3042   -4.1417    0.0000 C   0  0  3  0  0  0  0  0  0  0  0  0
    7.9167   -2.6792    0.0000 C   0  0  0  0  0  0  0  0  0  0  0  0
    8.3250   -3.4000    0.0000 C   0  0  3  0  0  0  0  0  0  0  0  0
    9.3417   -2.6792    0.0000 C   0  0  0  0  0  0  0  0  0  0  0  0
    8.6292   -4.5250    0.0000 C   0  0  2  0  0  0  0  0  0  0  0  0
    8.6292   -2.2667    0.0000 C   0  0  2  0  0  0  0  0  0  0  0  0
    7.0917   -2.6792    0.0000 C   0  0  0  0  0  0  0  0  0  0  0  0
    7.0917   -4.1125    0.0000 C   0  0  0  0  0  0  0  0  0  0  0  0
    6.6750   -3.4000    0.0000 C   0  0  2  0  0  0  0  0  0  0  0  0
    5.4417   -2.6875    0.0000 C   0  0  0  0  0  0  0  0  0  0  0  0
   10.3875   -3.3292    0.0000 C   0  0  2  0  0  0  0  0  0  0  0  0
    4.6167   -2.6875    0.0000 C   0  0  1  0  0  0  0  0  0  0  0  0
   10.5417   -4.6792    0.0000 C   0  0  1  0  0  0  0  0  0  0  0  0
    3.3917   -1.9750    0.0000 N   0  0  0  0  0  0  0  0  0  0  0  0
    8.0417   -5.1042    0.0000 O   0  0  0  0  0  0  0  0  0  0  0  0
    4.2125   -1.9750    0.0000 C   0  0  1  0  0  0  0  0  0  0  0  0
    2.9792   -1.2625    0.0000 C   0  0  0  0  0  0  0  0  0  0  0  0
    7.2167   -5.2042    0.0000 C   0  0  0  0  0  0  0  0  0  0  0  0
    5.8500   -3.4000    0.0000 O   0  0  0  0  0  0  0  0  0  0  0  0
    9.8417   -5.5375    0.0000 C   0  0  0  0  0  0  0  0  0  0  0  0
   10.8542   -3.9625    0.0000 C   0  0  0  0  0  0  0  0  0  0  0  0
    9.0875   -5.1417    0.0000 O   0  0  0  0  0  0  0  0  0  0  0  0
   10.6167   -5.4542    0.0000 O   0  0  0  0  0  0  0  0  0  0  0  0
    8.6250   -1.4417    0.0000 O   0  0  0  0  0  0  0  0  0  0  0  0
    9.0792   -5.9167    0.0000 C   0  0  0  0  0  0  0  0  0  0  0  0
    9.3375   -1.0250    0.0000 C   0  0  0  0  0  0  0  0  0  0  0  0
    9.7500   -1.9625    0.0000 O   0  0  0  0  0  0  0  0  0  0  0  0
    5.8542   -1.9667    0.0000 O   0  0  0  0  0  0  0  0  0  0  0  0
    3.3917   -0.5417    0.0000 O   0  0  0  0  0  0  0  0  0  0  0  0
    6.7792   -4.6125    0.0000 O   0  0  0  0  0  0  0  0  0  0  0  0
    7.5000   -3.3917    0.0000 O   0  0  0  0  0  0  0  0  0  0  0  0
    2.1542   -1.2542    0.0000 C   0  0  0  0  0  0  0  0  0  0  0  0
    6.8042   -5.9250    0.0000 C   0  0  0  0  0  0  0  0  0  0  0  0
    4.6167   -1.2542    0.0000 C   0  0  0  0  0  0  0  0  0  0  0  0
    9.7417   -6.3167    0.0000 O   0  0  0  0  0  0  0  0  0  0  0  0
    9.3292   -0.2000    0.0000 O   0  0  0  0  0  0  0  0  0  0  0  0
   10.0167   -2.7042    0.0000 C   0  0  0  0  0  0  0  0  0  0  0  0
    4.2042   -3.4000    0.0000 O   0  0  0  0  0  0  0  0  0  0  0  0
   10.9375   -2.7792    0.0000 O   0  0  0  0  0  0  0  0  0  0  0  0
    8.8042   -3.8625    0.0000 C   0  0  0  0  0  0  0  0  0  0  0  0
    8.8375   -2.8917    0.0000 C   0  0  0  0  0  0  0  0  0  0  0  0
    6.6792   -1.9667    0.0000 C   0  0  0  0  0  0  0  0  0  0  0  0
   10.0542   -1.4292    0.0000 C   0  0  0  0  0  0  0  0  0  0  0  0
    8.4000   -6.3042    0.0000 C   0  0  0  0  0  0  0  0  0  0  0  0
    1.7500   -0.5417    0.0000 C   0  0  0  0  0  0  0  0  0  0  0  0
    5.9792   -5.9250    0.0000 C   0  0  0  0  0  0  0  0  0  0  0  0
    7.2250   -6.6292    0.0000 C   0  0  0  0  0  0  0  0  0  0  0  0
    1.7417   -1.9667    0.0000 C   0  0  0  0  0  0  0  0  0  0  0  0
    5.4417   -1.2542    0.0000 C   0  0  0  0  0  0  0  0  0  0  0  0
    4.2042   -0.5500    0.0000 C   0  0  0  0  0  0  0  0  0  0  0  0
    0.9250   -1.9667    0.0000 C   0  0  0  0  0  0  0  0  0  0  0  0
    5.8542   -0.5375    0.0000 C   0  0  0  0  0  0  0  0  0  0  0  0
    5.5750   -6.6417    0.0000 C   0  0  0  0  0  0  0  0  0  0  0  0
    6.8167   -7.3417    0.0000 C   0  0  0  0  0  0  0  0  0  0  0  0
    4.6042    0.1708    0.0000 C   0  0  0  0  0  0  0  0  0  0  0  0
    0.9250   -0.5375    0.0000 C   0  0  0  0  0  0  0  0  0  0  0  0
    0.5042   -1.2500    0.0000 C   0  0  0  0  0  0  0  0  0  0  0  0
    5.4375    0.1750    0.0000 C   0  0  0  0  0  0  0  0  0  0  0  0
    5.9917   -7.3542    0.0000 C   0  0  0  0  0  0  0  0  0  0  0  0
  2  4  1  0  0  0  0
  3  8  1  0  0  0  0
  4  1  1  0  0  0  0
  5  9  1  0  0  0  0
  6  5  1  0  0  0  0
  7  1  1  0  0  0  0
  8  4  1  0  0  0  0
  9  7  1  0  0  0  0
 10  5  2  0  0  0  0
 11  3  1  0  0  0  0
 12 10  1  0  0  0  0
 13 22  1  0  0  0  0
 14  1  1  0  0  0  0
 15 13  1  0  0  0  0
 16 24  1  0  0  0  0
 17 19  1  0  0  0  0
  8 18  1  6  0  0  0
 19 15  1  0  0  0  0
 20 17  1  0  0  0  0
 21 18  1  0  0  0  0
 12 22  1  6  0  0  0
  2 23  1  1  0  0  0
 24 14  1  0  0  0  0
  2 25  1  6  0  0  0
 16 26  1  1  0  0  0
  9 27  1  1  0  0  0
 28 25  1  0  0  0  0
 29 27  1  0  0  0  0
 30  7  2  0  0  0  0
 31 13  2  0  0  0  0
 32 20  2  0  0  0  0
 33 21  2  0  0  0  0
  3 34  1  1  0  0  0
 35 20  1  0  0  0  0
 36 21  1  0  0  0  0
 19 37  1  1  0  0  0
 38 28  2  0  0  0  0
 39 29  2  0  0  0  0
  1 40  1  1  0  0  0
 15 41  1  6  0  0  0
 14 42  1  1  0  0  0
 43  6  1  0  0  0  0
 44  6  1  0  0  0  0
 45 10  1  0  0  0  0
 46 29  1  0  0  0  0
 47 28  1  0  0  0  0
 48 35  2  0  0  0  0
 49 36  2  0  0  0  0
 50 36  1  0  0  0  0
 51 35  1  0  0  0  0
 52 37  2  0  0  0  0
 53 37  1  0  0  0  0
 54 51  2  0  0  0  0
 55 52  1  0  0  0  0
 56 49  1  0  0  0  0
 57 50  2  0  0  0  0
 58 53  2  0  0  0  0
 59 48  1  0  0  0  0
 60 54  1  0  0  0  0
 61 58  1  0  0  0  0
 62 57  1  0  0  0  0
  2 16  1  0  0  0  0
 26 23  1  0  0  0  0
  6  3  1  0  0  0  0
 12 11  1  0  0  0  0
 62 56  2  0  0  0  0
 61 55  2  0  0  0  0
 60 59  2  0  0  0  0
M  END
> <#>
120

> <PLATE>
LAT002

> <ROW>
H

> <COL>
6

> <COORD>
H06

> <LATID>
LAT002H06

> <Supplier>
Microsource

> <Suplier_CAT#>
01503908

> <Name>
Paclitaxel

> <Concentration_(mM)>
2.5

> <IC50_(µM)>
0.42

> <Yeast_Active?>
-

> <Pubchem_CID>
4666

> <Description>
Antineoplastic

> <Source>
Natural Product; ex Taxus breviofolia

> <LATCA_Notes>
Stabilizes Microtubules

$$$$
