
  -ISIS-  08130814242D

 11 12  0  0  0  0  0  0  0  0999 V2000
    2.3750   -3.1667    0.0000 C   0  0  0  0  0  0  0  0  0  0  0  0
    2.3792   -2.3375    0.0000 C   0  0  0  0  0  0  0  0  0  0  0  0
    3.1750   -2.0875    0.0000 O   0  0  0  0  0  0  0  0  0  0  0  0
    3.1625   -3.4292    0.0000 C   0  0  0  0  0  0  0  0  0  0  0  0
    3.6542   -2.7625    0.0000 C   0  0  0  0  0  0  0  0  0  0  0  0
    1.6667   -3.5750    0.0000 C   0  0  3  0  0  0  0  0  0  0  0  0
    1.6667   -1.9250    0.0000 C   0  0  0  0  0  0  0  0  0  0  0  0
    0.9542   -3.1667    0.0000 O   0  0  0  0  0  0  0  0  0  0  0  0
    4.4792   -2.7667    0.0000 O   0  0  0  0  0  0  0  0  0  0  0  0
    0.9542   -2.3417    0.0000 C   0  0  0  0  0  0  0  0  0  0  0  0
    1.6667   -4.4000    0.0000 O   0  0  0  0  0  0  0  0  0  0  0  0
  2  1  1  0  0  0  0
  3  2  1  0  0  0  0
  4  1  2  0  0  0  0
  5  4  1  0  0  0  0
  6  1  1  0  0  0  0
  7  2  2  0  0  0  0
  8  6  1  0  0  0  0
  9  5  2  0  0  0  0
 10  8  1  0  0  0  0
 11  6  1  0  0  0  0
  3  5  1  0  0  0  0
  7 10  1  0  0  0  0
M  END
> <#>
152

> <PLATE>
LAT002

> <ROW>
H

> <COL>
10

> <COORD>
H10

> <LATID>
LAT002H10

> <Supplier>
Microsource

> <Suplier_CAT#>
01503904

> <Name>
Patulin

> <Concentration_(mM)>
2.5

> <IC50_(µM)>
14

> <Yeast_Active?>
-

> <Pubchem_CID>
4696

> <Description>
Antibiotic

> <Source>
Natural Product; ex Aspergillus clavatus, Penicillium patulum

$$$$
