
  -ISIS-  08130814242D

 22 24  0  0  0  0  0  0  0  0999 V2000
   -0.1625   -0.6167    0.0000 C   0  0  0  0  0  0  0  0  0  0  0  0
   -0.2833    0.5625    0.0000 C   0  0  0  0  0  0  0  0  0  0  0  0
   -1.4458    0.8208    0.0000 C   0  0  0  0  0  0  0  0  0  0  0  0
   -1.2458   -1.1000    0.0000 S   0  0  0  0  0  0  0  0  0  0  0  0
   -2.0208   -0.2000    0.0000 C   0  0  0  0  0  0  0  0  0  0  0  0
   -3.2208   -0.2000    0.0000 N   0  0  0  0  0  0  0  0  0  0  0  0
    0.8542   -1.2375    0.0000 C   0  0  0  0  0  0  0  0  0  0  0  0
   -2.0208    1.8458    0.0000 C   0  0  0  0  0  0  0  0  0  0  0  0
   -3.2208    1.8458    0.0000 C   0  0  0  0  0  0  0  0  0  0  0  0
   -3.8000    0.8208    0.0000 C   0  0  0  0  0  0  0  0  0  0  0  0
    1.9000   -0.6375    0.0000 O   0  0  0  0  0  0  0  0  0  0  0  0
    0.6167    1.3458    0.0000 N   0  0  0  0  0  0  0  0  0  0  0  0
    0.8542   -2.4167    0.0000 O   0  0  0  0  0  0  0  0  0  0  0  0
    1.9000    0.5458    0.0000 C   0  0  0  0  0  0  0  0  0  0  0  0
   -1.4208    2.8625    0.0000 C   0  0  0  0  0  0  0  0  0  0  0  0
    2.9167    1.1458    0.0000 C   0  0  0  0  0  0  0  0  0  0  0  0
   -4.9833    0.8208    0.0000 C   0  0  0  0  0  0  0  0  0  0  0  0
    2.9167    2.3208    0.0000 C   0  0  0  0  0  0  0  0  0  0  0  0
    3.9375    0.5458    0.0000 C   0  0  0  0  0  0  0  0  0  0  0  0
    4.9542    1.1458    0.0000 C   0  0  0  0  0  0  0  0  0  0  0  0
    3.9375    2.9208    0.0000 C   0  0  0  0  0  0  0  0  0  0  0  0
    4.9542    2.3208    0.0000 C   0  0  0  0  0  0  0  0  0  0  0  0
  2  1  2  0  0  0  0
  3  2  1  0  0  0  0
  4  1  1  0  0  0  0
  5  4  1  0  0  0  0
  6  5  1  0  0  0  0
  7  1  1  0  0  0  0
  8  3  1  0  0  0  0
  9  8  2  0  0  0  0
 10  6  2  0  0  0  0
 11  7  1  0  0  0  0
 12  2  1  0  0  0  0
 13  7  2  0  0  0  0
 14 11  1  0  0  0  0
 15  8  1  0  0  0  0
 16 14  1  0  0  0  0
 17 10  1  0  0  0  0
 18 16  2  0  0  0  0
 19 16  1  0  0  0  0
 20 19  2  0  0  0  0
 21 18  1  0  0  0  0
 22 20  1  0  0  0  0
  3  5  2  0  0  0  0
  9 10  1  0  0  0  0
 22 21  2  0  0  0  0
M  END
> <#>
1106

> <PLATE>
LAT014

> <ROW>
B

> <COL>
10

> <COORD>
B10

> <LATID>
LAT014B10

> <Supplier>
Chembridge

> <Suplier_CAT#>
5212356

> <Name>
Novel

> <Concentration_(mM)>
2.5

> <IC50_(µM)>
>100

> <Yeast_Active?>
-

> <Pubchem_CID>
745312

$$$$
