
  -ISIS-  08130814242D

 12 14  0  0  0  0  0  0  0  0999 V2000
    6.6792   -4.1875    0.0000 C   0  0  0  0  0  0  0  0  0  0  0  0
    6.6667   -2.8500    0.0000 C   0  0  0  0  0  0  0  0  0  0  0  0
    5.8917   -3.1125    0.0000 C   0  0  3  0  0  0  0  0  0  0  0  0
    5.8917   -3.9292    0.0000 C   0  0  3  0  0  0  0  0  0  0  0  0
    7.1625   -3.5167    0.0000 O   0  0  0  0  0  0  0  0  0  0  0  0
    5.1042   -4.1917    0.0000 C   0  0  3  0  0  0  0  0  0  0  0  0
    5.1167   -2.8500    0.0000 C   0  0  3  0  0  0  0  0  0  0  0  0
    4.6250   -3.5167    0.0000 O   0  0  0  0  0  0  0  0  0  0  0  0
    6.9250   -2.0667    0.0000 O   0  0  0  0  0  0  0  0  0  0  0  0
    6.9375   -4.9667    0.0000 O   0  0  0  0  0  0  0  0  0  0  0  0
    4.2792   -4.1500    0.0000 C   0  0  0  0  0  0  0  0  0  0  0  0
    4.2917   -2.8792    0.0000 C   0  0  0  0  0  0  0  0  0  0  0  0
  2  5  1  0  0  0  0
  3  4  1  0  0  0  0
  4  1  1  0  0  0  0
  5  1  1  0  0  0  0
  6  4  1  0  0  0  0
  7  3  1  0  0  0  0
  8  6  1  0  0  0  0
  9  2  2  0  0  0  0
 10  1  2  0  0  0  0
 11  6  1  0  0  0  0
 12 11  1  0  0  0  0
  2  3  1  0  0  0  0
  8  7  1  0  0  0  0
 12  7  1  0  0  0  0
M  END
> <#>
148

> <PLATE>
LAT002

> <ROW>
D

> <COL>
10

> <COORD>
D10

> <LATID>
LAT002D10

> <Supplier>
Microsource

> <Suplier_CAT#>
01504153

> <Name>
Norcantharidin

> <Concentration_(mM)>
2.5

> <IC50_(µM)>
5.2

> <Yeast_Active?>
-

> <Pubchem_CID>
93004

> <Description>
Protein Phosphatase 2A Inhibitor

$$$$
