
  -ISIS-  08130814242D

 18 20  0  0  0  0  0  0  0  0999 V2000
   -1.6958    1.6208    0.0000 N   0  0  3  0  0  0  0  0  0  0  0  0
   -1.6958    2.2833    0.0000 C   0  0  0  0  0  0  0  0  0  0  0  0
   -2.2708    1.2833    0.0000 C   0  0  0  0  0  0  0  0  0  0  0  0
   -2.2708    2.6208    0.0000 N   0  0  0  0  0  0  0  0  0  0  0  0
   -2.8500    1.6208    0.0000 C   0  0  0  0  0  0  0  0  0  0  0  0
   -2.8500    2.2833    0.0000 C   0  0  0  0  0  0  0  0  0  0  0  0
   -1.0958    1.3208    0.0000 C   0  0  0  0  0  0  0  0  0  0  0  0
   -2.2500    0.6208    0.0000 O   0  0  0  0  0  0  0  0  0  0  0  0
   -1.0958    2.6000    0.0000 S   0  0  0  0  0  0  0  0  0  0  0  0
   -3.4333    1.2833    0.0000 C   0  0  0  0  0  0  0  0  0  0  0  0
   -1.0500    0.6625    0.0000 C   0  0  3  0  0  0  0  0  0  0  0  0
   -3.4333    2.6208    0.0000 C   0  0  0  0  0  0  0  0  0  0  0  0
   -0.4500    0.3458    0.0000 C   0  0  0  0  0  0  0  0  0  0  0  0
   -1.5125    0.1625    0.0000 C   0  0  0  0  0  0  0  0  0  0  0  0
   -3.9958    1.6208    0.0000 C   0  0  0  0  0  0  0  0  0  0  0  0
   -3.9958    2.2833    0.0000 C   0  0  0  0  0  0  0  0  0  0  0  0
   -1.2125   -0.4000    0.0000 C   0  0  0  0  0  0  0  0  0  0  0  0
   -0.5500   -0.3167    0.0000 C   0  0  0  0  0  0  0  0  0  0  0  0
  2  1  1  0  0  0  0
  3  1  1  0  0  0  0
  4  2  2  0  0  0  0
  5  3  1  0  0  0  0
  6  5  2  0  0  0  0
  7  1  1  0  0  0  0
  8  3  2  0  0  0  0
  9  2  1  0  0  0  0
 10  5  1  0  0  0  0
 11  7  1  0  0  0  0
 12  6  1  0  0  0  0
 13 11  1  0  0  0  0
 14 11  1  0  0  0  0
 15 10  2  0  0  0  0
 16 15  1  0  0  0  0
 17 14  1  0  0  0  0
 18 13  1  0  0  0  0
  4  6  1  0  0  0  0
 17 18  1  0  0  0  0
 16 12  2  0  0  0  0
M  END
> <#>
991

> <PLATE>
LAT013

> <ROW>
G

> <COL>
5

> <COORD>
G05

> <LATID>
LAT013G05

> <Supplier>
Chembridge

> <Suplier_CAT#>
5727906

> <Name>
Novel

> <Sec_Name>
229_E11

> <Concentration_(mM)>
2.5

> <IC50_(µM)>
100

> <Yeast_Active?>
+

> <Pubchem_CID>
NULL

$$$$
