
  -ISIS-  08130814242D

 12 12  0  0  0  0  0  0  0  0999 V2000
   -4.1922    1.2558    0.0000 C   0  0  0  0  0  0  0  0  0  0  0  0
   -3.8753    1.8047    0.0000 C   0  0  2  0  0  0  0  0  0  0  0  0
   -3.2416    1.8047    0.0000 C   0  0  1  0  0  0  0  0  0  0  0  0
   -2.8691    2.3174    0.0000 C   0  0  0  0  0  0  0  0  0  0  0  0
   -3.0649    2.9201    0.0000 O   0  0  0  0  0  0  0  0  0  0  0  0
   -2.2663    2.1215    0.0000 C   0  0  0  0  0  0  0  0  0  0  0  0
   -2.2663    1.4878    0.0000 C   0  0  0  0  0  0  0  0  0  0  0  0
   -2.8691    1.2919    0.0000 O   0  0  0  0  0  0  0  0  0  0  0  0
   -1.7536    1.1153    0.0000 O   0  0  0  0  0  0  0  0  0  0  0  0
   -1.7536    2.4940    0.0000 O   0  0  0  0  0  0  0  0  0  0  0  0
   -4.1922    2.3535    0.0000 O   0  0  0  0  0  0  0  0  0  0  0  0
   -3.8753    0.7070    0.0000 O   0  0  0  0  0  0  0  0  0  0  0  0
  1  2  1  0  0  0  0
  2  3  1  0  0  0  0
  3  4  1  0  0  0  0
  4  5  2  0  0  0  0
  4  6  1  0  0  0  0
  6  7  2  0  0  0  0
  7  8  1  0  0  0  0
  3  8  1  1  0  0  0
  7  9  1  0  0  0  0
  6 10  1  0  0  0  0
  2 11  1  1  0  0  0
  1 12  1  0  0  0  0
M  END
> <#>
449

> <PLATE>
LAT006

> <ROW>
A

> <COL>
8

> <COORD>
A08

> <LATID>
LAT006A08

> <Supplier>
Sigma

> <Suplier_CAT#>
D-7792

> <Name>
2-Keto-L-Gluonic Acid

> <Concentration_(mM)>
2.5

> <IC50_(µM)>
92

> <Yeast_Active?>
-

> <Pubchem_CID>
235

$$$$
