
  -ISIS-  08130814242D

 23 24  0  0  0  0  0  0  0  0999 V2000
    5.2292   -2.5042    0.0000 C   0  0  0  0  0  0  0  0  0  0  0  0
    3.9292   -0.2542    0.0000 C   0  0  0  0  0  0  0  0  0  0  0  0
    1.9792   -1.3792    0.0000 C   0  0  0  0  0  0  0  0  0  0  0  0
    4.5792   -1.3792    0.0000 N   0  0  0  0  0  0  0  0  0  0  0  0
    1.3292   -1.7542    0.0000 C   0  0  0  0  0  0  0  0  0  0  0  0
    1.9792   -0.6292    0.0000 C   0  0  0  0  0  0  0  0  0  0  0  0
    4.5792   -2.8792    0.0000 C   0  0  0  0  0  0  0  0  0  0  0  0
    4.5792   -0.6292    0.0000 N   0  0  0  0  0  0  0  0  0  0  0  0
    5.8792   -2.8792    0.0000 C   0  0  0  0  0  0  0  0  0  0  0  0
    2.6292   -0.2500    0.0000 O   0  0  0  0  0  0  0  0  0  0  0  0
    3.9292    0.4833    0.0000 O   0  0  0  0  0  0  0  0  0  0  0  0
    5.2292   -1.7542    0.0000 C   0  0  0  0  0  0  0  0  0  0  0  0
    3.2792   -0.6292    0.0000 C   0  0  0  0  0  0  0  0  0  0  0  0
    1.3292   -0.2500    0.0000 C   0  0  0  0  0  0  0  0  0  0  0  0
    4.5792   -3.6292    0.0000 C   0  0  0  0  0  0  0  0  0  0  0  0
    0.6792   -1.3792    0.0000 C   0  0  0  0  0  0  0  0  0  0  0  0
    2.6292   -1.7542    0.0000 Br  0  0  0  0  0  0  0  0  0  0  0  0
    5.8792   -3.6292    0.0000 C   0  0  0  0  0  0  0  0  0  0  0  0
    0.6792   -0.6292    0.0000 C   0  0  0  0  0  0  0  0  0  0  0  0
    5.2292   -4.0042    0.0000 C   0  0  0  0  0  0  0  0  0  0  0  0
    0.0292   -1.7542    0.0000 Cl  0  0  0  0  0  0  0  0  0  0  0  0
    3.9292   -2.5042    0.0000 O   0  0  0  0  0  0  0  0  0  0  0  0
    6.5167   -4.0042    0.0000 C   0  0  0  0  0  0  0  0  0  0  0  0
  2  8  1  0  0  0  0
  3  6  2  0  0  0  0
  4 12  2  0  0  0  0
  5  3  1  0  0  0  0
  6 10  1  0  0  0  0
  7  1  1  0  0  0  0
  8  4  1  0  0  0  0
  9  1  2  0  0  0  0
 10 13  1  0  0  0  0
 11  2  2  0  0  0  0
 12  1  1  0  0  0  0
 13  2  1  0  0  0  0
 14  6  1  0  0  0  0
 15  7  2  0  0  0  0
 16 19  1  0  0  0  0
 17  3  1  0  0  0  0
 18  9  1  0  0  0  0
 19 14  2  0  0  0  0
 20 18  2  0  0  0  0
 21 16  1  0  0  0  0
 22  7  1  0  0  0  0
 23 18  1  0  0  0  0
 20 15  1  0  0  0  0
  5 16  2  0  0  0  0
M  END
> <#>
564

> <PLATE>
LAT008

> <ROW>
D

> <COL>
2

> <COORD>
D02

> <LATID>
LAT008D02

> <Supplier>
Chembridge

> <Suplier_CAT#>
5475052

> <Name>
Novel

> <Sec_Name>
138_H02

> <Concentration_(mM)>
2.5

> <IC50_(µM)>
0.53

> <Yeast_Active?>
-

> <Pubchem_CID>
NULL

$$$$
