
  -ISIS-  08130814242D

 36 41  0  0  0  0  0  0  0  0999 V2000
    7.6125   -3.3375    0.0000 C   0  0  2  0  0  0  0  0  0  0  0  0
    8.4917   -3.8125    0.0000 C   0  0  2  0  0  0  0  0  0  0  0  0
    6.7125   -3.8125    0.0000 C   0  0  1  0  0  0  0  0  0  0  0  0
    7.6125   -2.3042    0.0000 C   0  0  2  0  0  0  0  0  0  0  0  0
    7.6125   -4.3042    0.0000 O   0  0  0  0  0  0  0  0  0  0  0  0
    4.9375   -3.8125    0.0000 C   0  0  2  0  0  0  0  0  0  0  0  0
    5.8042   -3.3375    0.0000 C   0  0  3  0  0  0  0  0  0  0  0  0
    9.3542   -3.3375    0.0000 C   0  0  0  0  0  0  0  0  0  0  0  0
    4.9375   -4.8542    0.0000 C   0  0  3  0  0  0  0  0  0  0  0  0
    8.4917   -1.7750    0.0000 C   0  0  1  0  0  0  0  0  0  0  0  0
    9.3542   -2.3042    0.0000 O   0  0  0  0  0  0  0  0  0  0  0  0
    6.7125   -4.8250    0.0000 C   0  0  1  0  0  0  0  0  0  0  0  0
    4.0542   -5.3750    0.0000 C   0  0  3  0  0  0  0  0  0  0  0  0
    4.0542   -3.3375    0.0000 C   0  0  2  0  0  0  0  0  0  0  0  0
    8.4917   -0.9500    0.0000 C   0  0  0  0  0  0  0  0  0  0  0  0
    5.8542   -5.3375    0.0000 C   0  0  0  0  0  0  0  0  0  0  0  0
    6.7125   -1.7750    0.0000 C   0  0  0  0  0  0  0  0  0  0  0  0
    3.1625   -3.8125    0.0000 C   0  0  0  0  0  0  0  0  0  0  0  0
    3.1625   -4.8542    0.0000 C   0  0  1  0  0  0  0  0  0  0  0  0
    5.8042   -2.3042    0.0000 C   0  0  0  0  0  0  0  0  0  0  0  0
    7.5917   -5.3250    0.0000 O   0  0  0  0  0  0  0  0  0  0  0  0
    7.5917   -6.3250    0.0000 C   0  0  0  0  0  0  0  0  0  0  0  0
   10.2625   -3.8542    0.0000 O   0  0  0  0  0  0  0  0  0  0  0  0
    9.1750   -0.2167    0.0000 C   0  0  0  0  0  0  0  0  0  0  0  0
    7.5750   -0.4792    0.0000 C   0  0  0  0  0  0  0  0  0  0  0  0
    8.7167    0.6875    0.0000 O   0  0  0  0  0  0  0  0  0  0  0  0
    7.7042    0.5000    0.0000 C   0  0  0  0  0  0  0  0  0  0  0  0
    8.4625   -6.8125    0.0000 O   0  0  0  0  0  0  0  0  0  0  0  0
    6.7125   -2.6042    0.0000 C   0  0  0  0  0  0  0  0  0  0  0  0
    7.6125   -1.2625    0.0000 C   0  0  0  0  0  0  0  0  0  0  0  0
    4.0417   -2.3125    0.0000 O   0  0  0  0  0  0  0  0  0  0  0  0
    4.9375   -2.6750    0.0000 C   0  0  0  0  0  0  0  0  0  0  0  0
    2.2750   -5.3625    0.0000 O   0  0  0  0  0  0  0  0  0  0  0  0
    4.9375   -5.9125    0.0000 C   0  0  0  0  0  0  0  0  0  0  0  0
    3.1625   -5.9125    0.0000 C   0  0  0  0  0  0  0  0  0  0  0  0
    6.6750   -6.8875    0.0000 C   0  0  0  0  0  0  0  0  0  0  0  0
  2  1  1  0  0  0  0
  3  1  1  0  0  0  0
  4  1  1  0  0  0  0
  1  5  1  1  0  0  0
  6  7  1  0  0  0  0
  7  3  1  0  0  0  0
  8  2  1  0  0  0  0
  9 16  1  0  0  0  0
 10  4  1  0  0  0  0
 11 10  1  0  0  0  0
 12  3  1  0  0  0  0
 13  9  1  0  0  0  0
 14  6  1  0  0  0  0
 10 15  1  6  0  0  0
 16 12  1  0  0  0  0
 17  4  1  0  0  0  0
 18 14  1  0  0  0  0
 19 13  1  0  0  0  0
 20 17  1  0  0  0  0
 12 21  1  6  0  0  0
 22 21  1  0  0  0  0
 23  8  2  0  0  0  0
 24 15  2  0  0  0  0
 25 15  1  0  0  0  0
 26 24  1  0  0  0  0
 27 25  2  0  0  0  0
 28 22  2  0  0  0  0
  3 29  1  1  0  0  0
  4 30  1  6  0  0  0
 14 31  1  6  0  0  0
  6 32  1  1  0  0  0
 19 33  1  6  0  0  0
 34 13  1  0  0  0  0
 35 13  1  0  0  0  0
 36 22  1  0  0  0  0
  2  5  1  1  0  0  0
  7 20  1  0  0  0  0
 11  8  1  0  0  0  0
  6  9  1  0  0  0  0
 26 27  1  0  0  0  0
 19 18  1  0  0  0  0
M  END
> <#>
7

> <PLATE>
LAT001

> <ROW>
G

> <COL>
2

> <COORD>
G02

> <LATID>
LAT001G02

> <Supplier>
Microsource

> <Suplier_CAT#>
00100378

> <Name>
1,3-Dideacetylkhivorin

> <Concentration_(mM)>
2.5

> <IC50_(µM)>
6.2

> <Yeast_Active?>
-

> <Pubchem_CID>
4297097

> <Source>
Natural Product; ex Khaya senegalensis

$$$$
