
  -ISIS-  08130814242D

 16 16  0  0  0  0  0  0  0  0999 V2000
    4.8125   -2.4542    0.0000 C   0  0  0  0  0  0  0  0  0  0  0  0
    3.9875   -2.4542    0.0000 C   0  0  0  0  0  0  0  0  0  0  0  0
    8.5167   -4.5875    0.0000 C   0  0  0  0  0  0  0  0  0  0  0  0
    5.2250   -3.1667    0.0000 C   0  0  0  0  0  0  0  0  0  0  0  0
    8.9292   -3.8667    0.0000 O   0  0  0  0  0  0  0  0  0  0  0  0
    4.8125   -3.8792    0.0000 C   0  0  0  0  0  0  0  0  0  0  0  0
    3.5792   -3.1667    0.0000 C   0  0  0  0  0  0  0  0  0  0  0  0
    5.2250   -1.7417    0.0000 Cl  0  0  0  0  0  0  0  0  0  0  0  0
    3.9875   -3.8792    0.0000 C   0  0  0  0  0  0  0  0  0  0  0  0
    2.7542   -3.1667    0.0000 Cl  0  0  0  0  0  0  0  0  0  0  0  0
    8.9292   -5.3000    0.0000 O   0  0  0  0  0  0  0  0  0  0  0  0
    6.0417   -3.1667    0.0000 O   0  0  0  0  0  0  0  0  0  0  0  0
    7.7000   -4.5875    0.0000 C   0  0  0  0  0  0  0  0  0  0  0  0
    6.4542   -3.8792    0.0000 C   0  0  0  0  0  0  0  0  0  0  0  0
    9.7542   -5.2917    0.0000 C   0  0  0  0  0  0  0  0  0  0  0  0
    7.2792   -3.8750    0.0000 C   0  0  0  0  0  0  0  0  0  0  0  0
  2  1  1  0  0  0  0
  3 13  1  0  0  0  0
  4  1  2  0  0  0  0
  5  3  2  0  0  0  0
  6  4  1  0  0  0  0
  7  2  2  0  0  0  0
  8  1  1  0  0  0  0
  9  6  2  0  0  0  0
 10  7  1  0  0  0  0
 11  3  1  0  0  0  0
 12  4  1  0  0  0  0
 13 16  1  0  0  0  0
 14 12  1  0  0  0  0
 15 11  1  0  0  0  0
 16 14  1  0  0  0  0
  7  9  1  0  0  0  0
M  END
> <#>
187

> <PLATE>
LAT003

> <ROW>
C

> <COL>
5

> <COORD>
C05

> <LATID>
LAT003C05

> <Supplier>
Microsource

> <Suplier_CAT#>
00330045

> <Name>
2,4-Dichlorophenoxybutyric Acid, Methyl Ester

> <Concentration_(mM)>
2.5

> <IC50_(µM)>
1.2

> <Yeast_Active?>
-

> <Pubchem_CID>
1490

> <Description>
Herbicide

> <Comment>
Auxin agonist

$$$$
