
  -ISIS-  08130814242D

 31 35  0  0  0  0  0  0  0  0999 V2000
    3.2694   -4.4291    0.0000 C   0  0  0  0  0  0  0  0  0  0  0  0
    3.2682   -5.2565    0.0000 C   0  0  0  0  0  0  0  0  0  0  0  0
    3.9831   -5.6694    0.0000 C   0  0  0  0  0  0  0  0  0  0  0  0
    4.6995   -5.2560    0.0000 C   0  0  0  0  0  0  0  0  0  0  0  0
    3.9813   -4.0164    0.0000 C   0  0  0  0  0  0  0  0  0  0  0  0
    4.7020   -4.4243    0.0000 C   0  0  0  0  0  0  0  0  0  0  0  0
    4.6861   -2.7710    0.0000 C   0  0  0  0  0  0  0  0  0  0  0  0
    3.9702   -3.1906    0.0000 O   0  0  0  0  0  0  0  0  0  0  0  0
    5.4068   -3.1789    0.0000 C   0  0  2  0  0  0  0  0  0  0  0  0
    5.4126   -4.0085    0.0000 C   0  0  1  0  0  0  0  0  0  0  0  0
    6.1300   -4.4161    0.0000 C   0  0  0  0  0  0  0  0  0  0  0  0
    6.1185   -2.7568    0.0000 O   0  0  0  0  0  0  0  0  0  0  0  0
    6.8405   -3.1689    0.0000 C   0  0  0  0  0  0  0  0  0  0  0  0
    6.8432   -3.9982    0.0000 C   0  0  0  0  0  0  0  0  0  0  0  0
    7.5616   -4.4086    0.0000 C   0  0  0  0  0  0  0  0  0  0  0  0
    8.2777   -3.9909    0.0000 C   0  0  0  0  0  0  0  0  0  0  0  0
    7.5520   -2.7519    0.0000 C   0  0  0  0  0  0  0  0  0  0  0  0
    8.2686   -3.1623    0.0000 C   0  0  0  0  0  0  0  0  0  0  0  0
    8.8804   -2.6076    0.0000 O   0  0  0  0  0  0  0  0  0  0  0  0
    8.5419   -1.8542    0.0000 C   0  0  2  0  0  0  0  0  0  0  0  0
    7.7209   -1.9435    0.0000 C   0  0  0  0  0  0  0  0  0  0  0  0
    2.5534   -5.6684    0.0000 O   0  0  0  0  0  0  0  0  0  0  0  0
    3.9829   -6.4944    0.0000 O   0  0  0  0  0  0  0  0  0  0  0  0
    5.4000   -2.3500    0.0000 H   0  0  0  0  0  0  0  0  0  0  0  0
    5.4083   -4.8333    0.0000 H   0  0  0  0  0  0  0  0  0  0  0  0
    8.9500   -1.1375    0.0000 C   0  0  0  0  0  0  0  0  0  0  0  0
    8.3625   -0.5500    0.0000 C   0  0  0  0  0  0  0  0  0  0  0  0
    9.7676   -1.0274    0.0000 C   0  0  0  0  0  0  0  0  0  0  0  0
    6.1355   -5.2411    0.0000 O   0  0  0  0  0  0  0  0  0  0  0  0
    1.7250   -5.6625    0.0000 C   0  0  0  0  0  0  0  0  0  0  0  0
    4.8042   -6.4917    0.0000 C   0  0  0  0  0  0  0  0  0  0  0  0
  3  4  2  0  0  0  0
 14 15  1  0  0  0  0
  5  8  1  0  0  0  0
 15 16  2  0  0  0  0
 16 18  1  0  0  0  0
 17 13  1  0  0  0  0
 17 18  2  0  0  0  0
  6 10  1  0  0  0  0
  9  7  1  0  0  0  0
  7  8  1  0  0  0  0
  9 10  1  0  0  0  0
  4  6  1  0  0  0  0
 18 19  1  0  0  0  0
 19 20  1  0  0  0  0
 20 21  1  0  0  0  0
 21 17  1  0  0  0  0
  5  1  1  0  0  0  0
  2 22  1  0  0  0  0
  5  6  2  0  0  0  0
  3 23  1  0  0  0  0
  9 24  1  6  0  0  0
  9 12  1  0  0  0  0
 10 25  1  6  0  0  0
 10 11  1  0  0  0  0
 20 26  1  6  0  0  0
 11 14  1  0  0  0  0
 26 27  2  0  0  0  0
 13 12  1  0  0  0  0
 26 28  1  0  0  0  0
  2  3  1  0  0  0  0
 11 29  2  0  0  0  0
  1  2  2  0  0  0  0
 22 30  1  0  0  0  0
 13 14  2  0  0  0  0
 23 31  1  0  0  0  0
M  END
> <#>
270

> <PLATE>
LAT004

> <ROW>
F

> <COL>
5

> <COORD>
F05

> <LATID>
LAT004F05

> <Supplier>
Sigma

> <Suplier_CAT#>
R 8875

> <Name>
Rotenone

> <Concentration_(mM)>
2.5

> <IC50_(µM)>
100

> <Yeast_Active?>
-

> <Pubchem_CID>
5102

> <Description>
Inhibitor of mitochondrial electron transport

$$$$
