
  -ISIS-  08130814242D

 17 19  0  0  0  0  0  0  0  0999 V2000
    4.1542   -2.7042    0.0000 C   0  0  0  0  0  0  0  0  0  0  0  0
    4.1542   -1.8792    0.0000 C   0  0  0  0  0  0  0  0  0  0  0  0
    4.8750   -3.1125    0.0000 C   0  0  0  0  0  0  0  0  0  0  0  0
    3.4500   -3.1167    0.0000 C   0  0  0  0  0  0  0  0  0  0  0  0
    4.8792   -3.9417    0.0000 C   0  0  0  0  0  0  0  0  0  0  0  0
    3.4500   -3.9417    0.0000 C   0  0  0  0  0  0  0  0  0  0  0  0
    4.1667   -4.3542    0.0000 C   0  0  0  0  0  0  0  0  0  0  0  0
    3.4375   -1.4667    0.0000 O   0  0  0  0  0  0  0  0  0  0  0  0
    4.8667   -1.4625    0.0000 O   0  0  0  0  0  0  0  0  0  0  0  0
    5.5875   -2.6917    0.0000 C   0  0  0  0  0  0  0  0  0  0  0  0
    2.7292   -2.7042    0.0000 C   0  0  0  0  0  0  0  0  0  0  0  0
    2.7292   -4.3625    0.0000 C   0  0  0  0  0  0  0  0  0  0  0  0
    5.5917   -4.3500    0.0000 C   0  0  0  0  0  0  0  0  0  0  0  0
    2.0167   -3.1250    0.0000 C   0  0  0  0  0  0  0  0  0  0  0  0
    6.3042   -3.1000    0.0000 C   0  0  0  0  0  0  0  0  0  0  0  0
    6.3125   -3.9292    0.0000 C   0  0  0  0  0  0  0  0  0  0  0  0
    2.0167   -3.9500    0.0000 C   0  0  0  0  0  0  0  0  0  0  0  0
  2  1  1  0  0  0  0
  3  1  2  0  0  0  0
  4  1  1  0  0  0  0
  5  3  1  0  0  0  0
  6  4  1  0  0  0  0
  7  6  1  0  0  0  0
  8  2  2  0  0  0  0
  9  2  1  0  0  0  0
 10  3  1  0  0  0  0
 11  4  2  0  0  0  0
 12  6  2  0  0  0  0
 13  5  1  0  0  0  0
 14 11  1  0  0  0  0
 15 10  2  0  0  0  0
 16 15  1  0  0  0  0
 17 14  2  0  0  0  0
  5  7  2  0  0  0  0
 17 12  1  0  0  0  0
 16 13  2  0  0  0  0
M  END
> <#>
156

> <PLATE>
LAT002

> <ROW>
D

> <COL>
11

> <COORD>
D11

> <LATID>
LAT002D11

> <Supplier>
Microsource

> <Suplier_CAT#>
01502068

> <Name>
Anthracene-9-Carboxylic Acid

> <Concentration_(mM)>
2.5

> <IC50_(µM)>
40

> <Yeast_Active?>
-

> <Pubchem_CID>
2201

> <Description>
Cl Transport Inhibitor

$$$$
