
  -ISIS-  08130814242D

 18 19  0  0  0  0  0  0  0  0999 V2000
    6.7250   -2.8375    0.0000 C   0  0  0  0  0  0  0  0  0  0  0  0
    6.0125   -3.2500    0.0000 C   0  0  0  0  0  0  0  0  0  0  0  0
    7.4375   -3.2500    0.0000 O   0  0  0  0  0  0  0  0  0  0  0  0
    8.1583   -2.8375    0.0000 C   0  0  0  0  0  0  0  0  0  0  0  0
    6.0125   -4.0750    0.0000 C   0  0  0  0  0  0  0  0  0  0  0  0
    7.4375   -1.6000    0.0000 C   0  0  0  0  0  0  0  0  0  0  0  0
    6.7250   -2.0125    0.0000 C   0  0  0  0  0  0  0  0  0  0  0  0
    8.1583   -2.0125    0.0000 C   0  0  0  0  0  0  0  0  0  0  0  0
    5.3000   -4.4875    0.0000 C   0  0  0  0  0  0  0  0  0  0  0  0
    5.3000   -2.8375    0.0000 C   0  0  0  0  0  0  0  0  0  0  0  0
    8.8750   -3.2500    0.0000 O   0  0  0  0  0  0  0  0  0  0  0  0
    5.3000   -5.3208    0.0000 C   0  0  0  0  0  0  0  0  0  0  0  0
    6.0125   -1.6000    0.0000 C   0  0  0  0  0  0  0  0  0  0  0  0
    5.3000   -2.0125    0.0000 C   0  0  0  0  0  0  0  0  0  0  0  0
    4.5750   -3.2500    0.0000 O   0  0  0  0  0  0  0  0  0  0  0  0
    4.5875   -5.7333    0.0000 C   0  0  0  0  0  0  0  0  0  0  0  0
    6.0208   -5.7333    0.0000 C   0  0  0  0  0  0  0  0  0  0  0  0
    4.5750   -4.0750    0.0000 C   0  0  0  0  0  0  0  0  0  0  0  0
  2  1  1  0  0  0  0
  3  1  1  0  0  0  0
  4  3  1  0  0  0  0
  5  2  1  0  0  0  0
  6  7  1  0  0  0  0
  7  1  2  0  0  0  0
  8  6  2  0  0  0  0
  9  5  1  0  0  0  0
 10  2  2  0  0  0  0
 11  4  2  0  0  0  0
 12  9  2  0  0  0  0
 13  7  1  0  0  0  0
 14 13  2  0  0  0  0
 15 10  1  0  0  0  0
 16 12  1  0  0  0  0
 17 12  1  0  0  0  0
 18 15  1  0  0  0  0
 14 10  1  0  0  0  0
  8  4  1  0  0  0  0
M  END
> <#>
23

> <PLATE>
LAT001

> <ROW>
G

> <COL>
4

> <COORD>
G04

> <LATID>
LAT001G04

> <Supplier>
Microsource

> <Suplier_CAT#>
1504165

> <Name>
Osthol

> <Concentration_(mM)>
2.5

> <IC50_(µM)>
64

> <Yeast_Active?>
-

> <Pubchem_CID>
10228

$$$$
