
  -ISIS-  08130814242D

 27 29  0  0  0  0  0  0  0  0999 V2000
    6.9458   -3.6708    0.0000 C   0  0  0  0  0  0  0  0  0  0  0  0
    5.4583   -3.7458    0.0000 C   0  0  0  0  0  0  0  0  0  0  0  0
    5.2333   -2.9458    0.0000 C   0  0  0  0  0  0  0  0  0  0  0  0
    5.7250   -2.2875    0.0000 C   0  0  0  0  0  0  0  0  0  0  0  0
    7.0833   -2.8583    0.0000 C   0  0  0  0  0  0  0  0  0  0  0  0
    7.5708   -4.1958    0.0000 C   0  0  0  0  0  0  0  0  0  0  0  0
    6.5375   -2.2458    0.0000 O   0  0  0  0  0  0  0  0  0  0  0  0
    6.2208   -4.0583    0.0000 O   0  0  0  0  0  0  0  0  0  0  0  0
    4.8833   -4.3333    0.0000 C   0  0  0  0  0  0  0  0  0  0  0  0
    7.8583   -2.5708    0.0000 C   0  0  0  0  0  0  0  0  0  0  0  0
    4.0958   -4.1333    0.0000 C   0  0  0  0  0  0  0  0  0  0  0  0
    4.4333   -2.7458    0.0000 C   0  0  0  0  0  0  0  0  0  0  0  0
    8.3458   -3.9083    0.0000 C   0  0  0  0  0  0  0  0  0  0  0  0
    7.4333   -5.0083    0.0000 C   0  0  0  0  0  0  0  0  0  0  0  0
    8.4875   -3.1000    0.0000 C   0  0  0  0  0  0  0  0  0  0  0  0
    3.8583   -3.3333    0.0000 C   0  0  0  0  0  0  0  0  0  0  0  0
    5.0958   -5.1333    0.0000 C   0  0  3  0  0  0  0  0  0  0  0  0
    5.3458   -1.5458    0.0000 O   0  0  0  0  0  0  0  0  0  0  0  0
    6.6583   -5.2875    0.0000 O   0  0  0  0  0  0  0  0  0  0  0  0
    3.5375   -4.7333    0.0000 O   0  0  0  0  0  0  0  0  0  0  0  0
    8.0625   -5.5333    0.0000 O   0  0  0  0  0  0  0  0  0  0  0  0
    9.2708   -2.8208    0.0000 O   0  0  0  0  0  0  0  0  0  0  0  0
    4.5000   -5.7208    0.0000 O   0  0  0  0  0  0  0  0  0  0  0  0
    5.8875   -5.3458    0.0000 O   0  0  0  0  0  0  0  0  0  0  0  0
    7.9958   -1.7583    0.0000 C   0  0  0  0  0  0  0  0  0  0  0  0
    4.2083   -1.9458    0.0000 C   0  0  0  0  0  0  0  0  0  0  0  0
    9.9083   -3.3500    0.0000 C   0  0  0  0  0  0  0  0  0  0  0  0
  2  8  1  0  0  0  0
  3  2  2  0  0  0  0
  4  7  1  0  0  0  0
  5  1  2  0  0  0  0
  6  1  1  0  0  0  0
  7  5  1  0  0  0  0
  8  1  1  0  0  0  0
  9  2  1  0  0  0  0
 10  5  1  0  0  0  0
 11  9  2  0  0  0  0
 12  3  1  0  0  0  0
 13  6  2  0  0  0  0
 14  6  1  0  0  0  0
 15 13  1  0  0  0  0
 16 11  1  0  0  0  0
 17  9  1  0  0  0  0
 18  4  2  0  0  0  0
 19 14  2  0  0  0  0
 20 11  1  0  0  0  0
 21 14  1  0  0  0  0
 22 15  1  0  0  0  0
 23 17  1  0  0  0  0
 24 17  1  0  0  0  0
 25 10  1  0  0  0  0
 26 12  1  0  0  0  0
 27 22  1  0  0  0  0
 15 10  2  0  0  0  0
  3  4  1  0  0  0  0
 16 12  2  0  0  0  0
M  END
> <#>
35

> <PLATE>
LAT001

> <ROW>
C

> <COL>
6

> <COORD>
C06

> <LATID>
LAT001C06

> <Supplier>
Microsource

> <Suplier_CAT#>
1504106

> <Name>
Psoromic Acid

> <Concentration_(mM)>
2.5

> <IC50_(µM)>
26

> <Yeast_Active?>
-

> <Pubchem_CID>
23725

$$$$
