
  -ISIS-  08130814242D

 20 22  0  0  0  0  0  0  0  0999 V2000
   -0.0208   -0.2667    0.0000 C   0  0  0  0  0  0  0  0  0  0  0  0
   -0.5625    0.0333    0.0000 C   0  0  0  0  0  0  0  0  0  0  0  0
   -0.5625   -1.2042    0.0000 O   0  0  0  0  0  0  0  0  0  0  0  0
   -0.0208   -0.9042    0.0000 C   0  0  3  0  0  0  0  0  0  0  0  0
   -1.1000   -0.2875    0.0000 C   0  0  0  0  0  0  0  0  0  0  0  0
   -1.1000   -0.9042    0.0000 C   0  0  0  0  0  0  0  0  0  0  0  0
    0.4167   -1.3292    0.0000 C   0  0  0  0  0  0  0  0  0  0  0  0
   -0.5625    0.6458    0.0000 O   0  0  0  0  0  0  0  0  0  0  0  0
    0.5167    0.0708    0.0000 C   0  0  0  0  0  0  0  0  0  0  0  0
   -1.6208    0.0333    0.0000 C   0  0  0  0  0  0  0  0  0  0  0  0
   -1.6208   -1.2042    0.0000 C   0  0  0  0  0  0  0  0  0  0  0  0
    0.9000   -0.9667    0.0000 C   0  0  0  0  0  0  0  0  0  0  0  0
    0.5000   -1.9500    0.0000 C   0  0  0  0  0  0  0  0  0  0  0  0
   -1.0833    0.9458    0.0000 C   0  0  0  0  0  0  0  0  0  0  0  0
   -2.1625   -0.2667    0.0000 C   0  0  0  0  0  0  0  0  0  0  0  0
   -2.1625   -0.9042    0.0000 C   0  0  0  0  0  0  0  0  0  0  0  0
   -1.6000    0.6333    0.0000 C   0  0  0  0  0  0  0  0  0  0  0  0
    1.4792   -1.2292    0.0000 C   0  0  0  0  0  0  0  0  0  0  0  0
    1.0542   -2.1875    0.0000 C   0  0  0  0  0  0  0  0  0  0  0  0
    1.5375   -1.8292    0.0000 C   0  0  0  0  0  0  0  0  0  0  0  0
  2  1  2  0  0  0  0
  3  4  1  0  0  0  0
  4  1  1  0  0  0  0
  5  2  1  0  0  0  0
  6  3  1  0  0  0  0
  7  4  1  0  0  0  0
  8  2  1  0  0  0  0
  9  1  1  0  0  0  0
 10  5  1  0  0  0  0
 11  6  1  0  0  0  0
 12  7  2  0  0  0  0
 13  7  1  0  0  0  0
 14  8  1  0  0  0  0
 15 10  2  0  0  0  0
 16 11  2  0  0  0  0
 17 14  1  0  0  0  0
 18 12  1  0  0  0  0
 19 13  2  0  0  0  0
 20 19  1  0  0  0  0
  6  5  2  0  0  0  0
 20 18  2  0  0  0  0
 16 15  1  0  0  0  0
M  END
> <#>
726

> <PLATE>
LAT010

> <ROW>
F

> <COL>
2

> <COORD>
F02

> <LATID>
LAT010F02

> <Supplier>
Chembridge

> <Suplier_CAT#>
5566136

> <Name>
Novel

> <Sec_Name>
173_D11

> <Concentration_(mM)>
2.5

> <IC50_(µM)>
90

> <Yeast_Active?>
-

> <Pubchem_CID>
872150

$$$$
