
  -ISIS-  08130814242D

 13 13  0  0  0  0  0  0  0  0999 V2000
    5.0198   -3.6723    0.0000 C   0  0  0  0  0  0  0  0  0  0  0  0
    5.9121   -3.6723    0.0000 C   0  0  0  0  0  0  0  0  0  0  0  0
    6.3583   -2.8996    0.0000 C   0  0  0  0  0  0  0  0  0  0  0  0
    7.2506   -2.8996    0.0000 C   0  0  0  0  0  0  0  0  0  0  0  0
    7.6968   -3.6723    0.0000 C   0  0  0  0  0  0  0  0  0  0  0  0
    7.2506   -4.4451    0.0000 C   0  0  0  0  0  0  0  0  0  0  0  0
    6.3583   -4.4451    0.0000 C   0  0  0  0  0  0  0  0  0  0  0  0
    4.5736   -4.4451    0.0000 O   0  0  0  0  0  0  0  0  0  0  0  0
    4.5736   -2.8996    0.0000 O   0  0  0  0  0  0  0  0  0  0  0  0
    8.5891   -3.6723    0.0000 O   0  0  0  0  0  0  0  0  0  0  0  0
    9.0352   -4.4451    0.0000 C   0  0  0  0  0  0  0  0  0  0  0  0
    7.6968   -2.1268    0.0000 O   0  0  0  0  0  0  0  0  0  0  0  0
    8.5891   -2.1268    0.0000 C   0  0  0  0  0  0  0  0  0  0  0  0
  1  2  1  0  0  0  0
  2  3  1  0  0  0  0
  3  4  2  0  0  0  0
  4  5  1  0  0  0  0
  5  6  2  0  0  0  0
  6  7  1  0  0  0  0
  2  7  2  0  0  0  0
  1  8  2  0  0  0  0
  1  9  1  0  0  0  0
 10 11  1  0  0  0  0
  5 10  1  0  0  0  0
 12 13  1  0  0  0  0
  4 12  1  0  0  0  0
M  END
> <#>
499

> <PLATE>
LAT007

> <ROW>
C

> <COL>
4

> <COORD>
C04

> <LATID>
LAT007C04

> <Supplier>
Aldrich

> <Suplier_CAT#>
D13,180-6

> <Name>
3,4-Dimethoxybenzoic Acid

> <Concentration_(mM)>
2.5

> <IC50_(µM)>
>100

> <Yeast_Active?>
-

> <Pubchem_CID>
7121

$$$$
