
  -ISIS-  08130814242D

 28 31  0  0  0  0  0  0  0  0999 V2000
    1.0875    0.9000    0.0000 N   0  0  3  0  0  0  0  0  0  0  0  0
    0.7500   -0.1792    0.0000 N   0  0  3  0  0  0  0  0  0  0  0  0
    1.4500    1.1208    0.0000 C   0  0  0  0  0  0  0  0  0  0  0  0
    1.1042    0.4833    0.0000 C   0  0  0  0  0  0  0  0  0  0  0  0
    1.0875    1.7625    0.0000 S   0  0  0  0  0  0  0  0  0  0  0  0
    0.7500    0.2625    0.0000 C   0  0  0  0  0  0  0  0  0  0  0  0
    1.4500    1.5458    0.0000 C   0  0  0  0  0  0  0  0  0  0  0  0
    2.5875    0.9458    0.0000 C   0  0  3  0  0  0  0  0  0  0  0  0
    0.7292    1.1208    0.0000 C   0  0  0  0  0  0  0  0  0  0  0  0
    1.0500   -0.4792    0.0000 C   0  0  0  0  0  0  0  0  0  0  0  0
    0.3875   -0.4000    0.0000 C   0  0  0  0  0  0  0  0  0  0  0  0
    1.8292    0.9208    0.0000 C   0  0  0  0  0  0  0  0  0  0  0  0
    0.7292    1.5458    0.0000 C   0  0  0  0  0  0  0  0  0  0  0  0
    2.1875    1.1458    0.0000 C   0  0  0  0  0  0  0  0  0  0  0  0
    1.4667    0.2625    0.0000 O   0  0  0  0  0  0  0  0  0  0  0  0
    0.4667   -0.8000    0.0000 C   0  0  0  0  0  0  0  0  0  0  0  0
    0.8667   -0.8375    0.0000 C   0  0  0  0  0  0  0  0  0  0  0  0
    1.4875   -0.4167    0.0000 O   0  0  0  0  0  0  0  0  0  0  0  0
   -0.0333   -0.2167    0.0000 O   0  0  0  0  0  0  0  0  0  0  0  0
    1.8292    1.7458    0.0000 C   0  0  0  0  0  0  0  0  0  0  0  0
    2.1875    1.5208    0.0000 C   0  0  0  0  0  0  0  0  0  0  0  0
    2.9667    0.7458    0.0000 F   0  0  0  0  0  0  0  0  0  0  0  0
    2.3792    0.5458    0.0000 F   0  0  0  0  0  0  0  0  0  0  0  0
    2.7667    1.3208    0.0000 F   0  0  0  0  0  0  0  0  0  0  0  0
    0.3500    0.9000    0.0000 C   0  0  0  0  0  0  0  0  0  0  0  0
    0.3500    1.7625    0.0000 C   0  0  0  0  0  0  0  0  0  0  0  0
   -0.0125    1.1208    0.0000 C   0  0  0  0  0  0  0  0  0  0  0  0
   -0.0125    1.5458    0.0000 C   0  0  0  0  0  0  0  0  0  0  0  0
  2  6  1  0  0  0  0
  3  1  1  0  0  0  0
  4  1  1  0  0  0  0
  5 13  1  0  0  0  0
  6  4  1  0  0  0  0
  7  3  2  0  0  0  0
  8 14  1  0  0  0  0
  9  1  1  0  0  0  0
 10  2  1  0  0  0  0
 11  2  1  0  0  0  0
 12  3  1  0  0  0  0
 13  9  2  0  0  0  0
 14 12  2  0  0  0  0
 15  4  2  0  0  0  0
 16 11  1  0  0  0  0
 17 10  1  0  0  0  0
 18 10  2  0  0  0  0
 19 11  2  0  0  0  0
 20  7  1  0  0  0  0
 21 14  1  0  0  0  0
 22  8  1  0  0  0  0
 23  8  1  0  0  0  0
 24  8  1  0  0  0  0
 25  9  1  0  0  0  0
 26 13  1  0  0  0  0
 27 25  2  0  0  0  0
 28 27  1  0  0  0  0
  7  5  1  0  0  0  0
 26 28  2  0  0  0  0
 21 20  2  0  0  0  0
 16 17  1  0  0  0  0
M  END
> <#>
801

> <PLATE>
LAT011

> <ROW>
A

> <COL>
2

> <COORD>
A02

> <LATID>
LAT011A02

> <Supplier>
Chembridge

> <Suplier_CAT#>
5656184

> <Name>
Novel

> <Sec_Name>
203_G05

> <Concentration_(mM)>
2.5

> <IC50_(µM)>
23

> <Yeast_Active?>
-

> <Pubchem_CID>
1151189

$$$$
