
  -ISIS-  08130814242D

 59 63  0  0  0  0  0  0  0  0999 V2000
    9.0173    2.7285    0.0000 C   0  0  0  0  0  0  0  0  0  0  0  0
    8.3102    1.6977    0.0000 C   0  0  3  0  0  0  0  0  0  0  0  0
    7.3914    2.1661    0.0000 C   0  0  0  0  0  0  0  0  0  0  0  0
    6.3832    2.3830    0.0000 C   0  0  0  0  0  0  0  0  0  0  0  0
    5.3532    2.3338    0.0000 C   0  0  0  0  0  0  0  0  0  0  0  0
    4.3818    2.0027    0.0000 C   0  0  0  0  0  0  0  0  0  0  0  0
    3.4888    1.4870    0.0000 C   0  0  0  0  0  0  0  0  0  0  0  0
    2.6982    2.4266    0.0000 O   0  0  0  0  0  0  0  0  0  0  0  0
    2.8194    0.6996    0.0000 N   0  0  0  0  0  0  0  0  0  0  0  0
    2.3037   -0.1935    0.0000 C   0  0  0  0  0  0  0  0  0  0  0  0
    3.5713   -0.1935    0.0000 C   0  0  0  0  0  0  0  0  0  0  0  0
    4.2005   -1.2833    0.0000 C   0  0  0  0  0  0  0  0  0  0  0  0
    5.4463   -1.2833    0.0000 C   0  0  0  0  0  0  0  0  0  0  0  0
    6.0724   -2.3676    0.0000 C   0  0  0  0  0  0  0  0  0  0  0  0
    5.4469   -3.4511    0.0000 C   0  0  0  0  0  0  0  0  0  0  0  0
    4.1963   -3.4511    0.0000 C   0  0  0  0  0  0  0  0  0  0  0  0
    3.5712   -2.3683    0.0000 C   0  0  0  0  0  0  0  0  0  0  0  0
    2.3213   -2.3683    0.0000 C   0  0  0  0  0  0  0  0  0  0  0  0
    1.6964   -3.4508    0.0000 O   0  0  0  0  0  0  0  0  0  0  0  0
    1.6963   -1.2857    0.0000 C   0  0  0  0  0  0  0  0  0  0  0  0
    0.4463   -1.2857    0.0000 C   0  0  0  0  0  0  0  0  0  0  0  0
   -0.1787   -2.3682    0.0000 N   0  0  0  0  0  0  0  0  0  0  0  0
   -1.4287   -2.3682    0.0000 N   0  0  3  0  0  0  0  0  0  0  0  0
   -2.0537   -3.4508    0.0000 C   0  0  0  0  0  0  0  0  0  0  0  0
   -3.3037   -3.4508    0.0000 C   0  0  0  0  0  0  0  0  0  0  0  0
   -3.9287   -2.3682    0.0000 N   0  0  3  0  0  0  0  0  0  0  0  0
   -3.3037   -1.2857    0.0000 C   0  0  0  0  0  0  0  0  0  0  0  0
   -2.0537   -1.2857    0.0000 C   0  0  0  0  0  0  0  0  0  0  0  0
   -5.1787   -2.3682    0.0000 C   0  0  0  0  0  0  0  0  0  0  0  0
    3.8101   -4.6396    0.0000 C   0  0  0  0  0  0  0  0  0  0  0  0
    2.6212   -5.0259    0.0000 O   0  0  0  0  0  0  0  0  0  0  0  0
    4.8213   -5.3743    0.0000 C   0  0  3  0  0  0  0  0  0  0  0  0
    5.8326   -4.6396    0.0000 O   0  0  0  0  0  0  0  0  0  0  0  0
    5.8349   -5.5646    0.0000 O   0  0  0  0  0  0  0  0  0  0  0  0
    6.8633   -5.4882    0.0000 C   0  0  0  0  0  0  0  0  0  0  0  0
    7.8377   -5.1505    0.0000 C   0  0  0  0  0  0  0  0  0  0  0  0
    8.6927   -4.5739    0.0000 C   0  0  3  0  0  0  0  0  0  0  0  0
    9.3711   -3.7972    0.0000 C   0  0  3  0  0  0  0  0  0  0  0  0
    9.8273   -2.8723    0.0000 C   0  0  3  0  0  0  0  0  0  0  0  0
   10.0309   -1.8614    0.0000 C   0  0  3  0  0  0  0  0  0  0  0  0
    9.9681   -0.8320    0.0000 C   0  0  3  0  0  0  0  0  0  0  0  0
    9.6432    0.1467    0.0000 C   0  0  3  0  0  0  0  0  0  0  0  0
    9.0779    1.0092    0.0000 C   0  0  3  0  0  0  0  0  0  0  0  0
   10.0259    1.8239    0.0000 O   0  0  0  0  0  0  0  0  0  0  0  0
   10.7686    0.6908    0.0000 C   0  0  0  0  0  0  0  0  0  0  0  0
   11.1954   -0.5951    0.0000 O   0  0  0  0  0  0  0  0  0  0  0  0
   11.2779   -1.9474    0.0000 C   0  0  0  0  0  0  0  0  0  0  0  0
   11.0105   -3.2756    0.0000 O   0  0  0  0  0  0  0  0  0  0  0  0
   11.9513   -2.4526    0.0000 C   0  0  0  0  0  0  0  0  0  0  0  0
   11.7089   -1.2263    0.0000 O   0  0  0  0  0  0  0  0  0  0  0  0
   13.1344   -2.8559    0.0000 C   0  0  0  0  0  0  0  0  0  0  0  0
   10.4110   -4.4906    0.0000 C   0  0  0  0  0  0  0  0  0  0  0  0
    9.5198   -5.5111    0.0000 O   0  0  0  0  0  0  0  0  0  0  0  0
    9.1217   -6.6960    0.0000 C   0  0  0  0  0  0  0  0  0  0  0  0
    4.3266   -6.5223    0.0000 C   0  0  0  0  0  0  0  0  0  0  0  0
    7.3213   -2.3676    0.0000 C   0  0  0  0  0  0  0  0  0  0  0  0
    6.0703   -0.2026    0.0000 O   0  0  0  0  0  0  0  0  0  0  0  0
    4.1921    0.8818    0.0000 O   0  0  0  0  0  0  0  0  0  0  0  0
    3.8410    3.1542    0.0000 C   0  0  0  0  0  0  0  0  0  0  0  0
  1  2  1  0  0  0  0
  2  3  1  0  0  0  0
  3  4  2  0  0  0  0
  4  5  1  0  0  0  0
  5  6  2  0  0  0  0
  6  7  1  0  0  0  0
  7  8  2  0  0  0  0
  7  9  1  0  0  0  0
  9 10  1  0  0  0  0
 10 11  2  0  0  0  0
 11 12  1  0  0  0  0
 12 13  2  0  0  0  0
 13 14  1  0  0  0  0
 14 15  2  0  0  0  0
 15 16  1  0  0  0  0
 16 17  2  0  0  0  0
 12 17  1  0  0  0  0
 17 18  1  0  0  0  0
 18 19  2  0  0  0  0
 18 20  1  0  0  0  0
 10 20  1  0  0  0  0
 20 21  2  0  0  0  0
 21 22  1  0  0  0  0
 22 23  1  0  0  0  0
 23 24  1  0  0  0  0
 24 25  1  0  0  0  0
 25 26  1  0  0  0  0
 26 27  1  0  0  0  0
 27 28  1  0  0  0  0
 23 28  1  0  0  0  0
 26 29  1  0  0  0  0
 16 30  1  0  0  0  0
 30 31  2  0  0  0  0
 30 32  1  0  0  0  0
 32 33  1  0  0  0  0
 15 33  1  0  0  0  0
 32 34  1  0  0  0  0
 34 35  1  0  0  0  0
 35 36  2  0  0  0  0
 36 37  1  0  0  0  0
 37 38  1  0  0  0  0
 38 39  1  0  0  0  0
 39 40  1  0  0  0  0
 40 41  1  0  0  0  0
 41 42  1  0  0  0  0
 42 43  1  0  0  0  0
  2 43  1  0  0  0  0
 43 44  1  0  0  0  0
 42 45  1  0  0  0  0
 41 46  1  0  0  0  0
 40 47  1  0  0  0  0
 39 48  1  0  0  0  0
 48 49  1  0  0  0  0
 49 50  2  0  0  0  0
 49 51  1  0  0  0  0
 38 52  1  0  0  0  0
 37 53  1  0  0  0  0
 53 54  1  0  0  0  0
 32 55  1  0  0  0  0
 14 56  1  0  0  0  0
 13 57  1  0  0  0  0
 11 58  1  0  0  0  0
  6 59  1  0  0  0  0
M  END
> <#>
405

> <PLATE>
LAT006

> <ROW>
E

> <COL>
2

> <COORD>
E02

> <LATID>
LAT006E02

> <Supplier>
Sigma

> <Suplier_CAT#>
R-3501

> <Name>
Rifampicin

> <Concentration_(mM)>
2.5

> <IC50_(µM)>
>100

> <Yeast_Active?>
-

> <Pubchem_CID>
5381226

$$$$
