
  -ISIS-  08130814242D

 29 32  0  0  0  0  0  0  0  0999 V2000
   -0.5500   -1.9792    0.0000 C   0  0  0  0  0  0  0  0  0  0  0  0
   -1.9708   -1.9792    0.0000 C   0  0  0  0  0  0  0  0  0  0  0  0
   -0.5500   -2.8000    0.0000 C   0  0  0  0  0  0  0  0  0  0  0  0
   -1.2625   -1.5792    0.0000 C   0  0  3  0  0  0  0  0  0  0  0  0
   -1.9708   -2.8000    0.0000 C   0  0  0  0  0  0  0  0  0  0  0  0
   -1.2625   -3.2167    0.0000 N   0  0  0  0  0  0  0  0  0  0  0  0
    0.1792   -1.5792    0.0000 C   0  0  0  0  0  0  0  0  0  0  0  0
   -2.6708   -1.5792    0.0000 C   0  0  0  0  0  0  0  0  0  0  0  0
   -1.2625   -0.0667    0.0000 C   0  0  0  0  0  0  0  0  0  0  0  0
    0.8667   -1.9792    0.0000 O   0  0  0  0  0  0  0  0  0  0  0  0
    0.1792   -0.7375    0.0000 O   0  0  0  0  0  0  0  0  0  0  0  0
   -2.6708   -0.7375    0.0000 O   0  0  0  0  0  0  0  0  0  0  0  0
   -0.5500    0.3458    0.0000 C   0  0  0  0  0  0  0  0  0  0  0  0
   -1.9708    0.3458    0.0000 C   0  0  0  0  0  0  0  0  0  0  0  0
   -2.6708   -3.2167    0.0000 C   0  0  0  0  0  0  0  0  0  0  0  0
    1.5875   -1.5792    0.0000 C   0  0  0  0  0  0  0  0  0  0  0  0
    0.1792   -3.2292    0.0000 C   0  0  0  0  0  0  0  0  0  0  0  0
   -0.5500    1.1458    0.0000 C   0  0  0  0  0  0  0  0  0  0  0  0
   -1.9708    1.1458    0.0000 C   0  0  0  0  0  0  0  0  0  0  0  0
   -1.2625    1.5625    0.0000 C   0  0  0  0  0  0  0  0  0  0  0  0
    2.3000   -2.0167    0.0000 C   0  0  0  0  0  0  0  0  0  0  0  0
   -3.3958   -1.9792    0.0000 C   0  0  0  0  0  0  0  0  0  0  0  0
   -3.3958   -2.8000    0.0000 C   0  0  0  0  0  0  0  0  0  0  0  0
   -1.2625    2.3958    0.0000 C   0  0  0  0  0  0  0  0  0  0  0  0
    2.2875   -2.8667    0.0000 C   0  0  0  0  0  0  0  0  0  0  0  0
    3.0500   -1.6292    0.0000 C   0  0  0  0  0  0  0  0  0  0  0  0
    3.7667   -2.0542    0.0000 C   0  0  0  0  0  0  0  0  0  0  0  0
    2.9875   -3.3042    0.0000 C   0  0  0  0  0  0  0  0  0  0  0  0
    3.7375   -2.9042    0.0000 C   0  0  0  0  0  0  0  0  0  0  0  0
  2  4  1  0  0  0  0
  3  1  2  0  0  0  0
  4  1  1  0  0  0  0
  5  2  2  0  0  0  0
  6  3  1  0  0  0  0
  7  1  1  0  0  0  0
  8  2  1  0  0  0  0
  9  4  1  0  0  0  0
 10  7  1  0  0  0  0
 11  7  2  0  0  0  0
 12  8  2  0  0  0  0
 13  9  1  0  0  0  0
 14  9  2  0  0  0  0
 15  5  1  0  0  0  0
 16 10  1  0  0  0  0
 17  3  1  0  0  0  0
 18 13  2  0  0  0  0
 19 14  1  0  0  0  0
 20 19  2  0  0  0  0
 21 16  1  0  0  0  0
 22  8  1  0  0  0  0
 23 22  1  0  0  0  0
 24 20  1  0  0  0  0
 25 21  2  0  0  0  0
 26 21  1  0  0  0  0
 27 26  2  0  0  0  0
 28 25  1  0  0  0  0
 29 27  1  0  0  0  0
  6  5  1  0  0  0  0
 18 20  1  0  0  0  0
 23 15  1  0  0  0  0
 28 29  2  0  0  0  0
M  END
> <#>
560

> <PLATE>
LAT007

> <ROW>
H

> <COL>
11

> <COORD>
H11

> <LATID>
LAT007H11

> <Supplier>
Chembridge

> <Suplier_CAT#>
5473152

> <Name>
Novel

> <Sec_Name>
135_E11

> <Concentration_(mM)>
2.5

> <IC50_(µM)>
100

> <Yeast_Active?>
-

> <Pubchem_CID>
1101343

$$$$
