
  -ISIS-  08130814242D

 22 23  0  0  0  0  0  0  0  0999 V2000
    2.2042   -1.3000    0.0000 C   0  0  0  0  0  0  0  0  0  0  0  0
    4.8042   -1.3042    0.0000 C   0  0  0  0  0  0  0  0  0  0  0  0
    6.1042   -1.3042    0.0000 C   0  0  0  0  0  0  0  0  0  0  0  0
    5.4542   -0.9292    0.0000 C   0  0  0  0  0  0  0  0  0  0  0  0
    6.1042   -2.0542    0.0000 C   0  0  0  0  0  0  0  0  0  0  0  0
    4.8042   -2.0542    0.0000 C   0  0  0  0  0  0  0  0  0  0  0  0
    5.4542   -2.4292    0.0000 C   0  0  0  0  0  0  0  0  0  0  0  0
    1.5542   -0.9292    0.0000 C   0  0  3  0  0  0  0  0  0  0  0  0
    3.5042   -1.3042    0.0000 N   0  0  0  0  0  0  0  0  0  0  0  0
    2.8542   -0.9292    0.0000 N   0  0  0  0  0  0  0  0  0  0  0  0
    2.2042   -2.0500    0.0000 O   0  0  0  0  0  0  0  0  0  0  0  0
    4.1542   -0.9292    0.0000 C   0  0  0  0  0  0  0  0  0  0  0  0
    0.9042   -1.3000    0.0000 C   0  0  0  0  0  0  0  0  0  0  0  0
    5.4542   -0.1792    0.0000 Br  0  0  0  0  0  0  0  0  0  0  0  0
    6.7542   -2.4292    0.0000 Br  0  0  0  0  0  0  0  0  0  0  0  0
    5.4542   -3.1792    0.0000 O   0  0  0  0  0  0  0  0  0  0  0  0
    1.5667   -0.1792    0.0000 O   0  0  0  0  0  0  0  0  0  0  0  0
    0.9042   -2.0542    0.0000 C   0  0  0  0  0  0  0  0  0  0  0  0
    0.2542   -0.9167    0.0000 C   0  0  0  0  0  0  0  0  0  0  0  0
    0.2542   -2.4292    0.0000 C   0  0  0  0  0  0  0  0  0  0  0  0
   -0.3833   -1.3000    0.0000 C   0  0  0  0  0  0  0  0  0  0  0  0
   -0.3833   -2.0542    0.0000 C   0  0  0  0  0  0  0  0  0  0  0  0
  2 12  1  0  0  0  0
  3  4  1  0  0  0  0
  4  2  2  0  0  0  0
  5  7  1  0  0  0  0
  6  2  1  0  0  0  0
  7  6  2  0  0  0  0
  8  1  1  0  0  0  0
  9 10  1  0  0  0  0
 10  1  1  0  0  0  0
 11  1  2  0  0  0  0
 12  9  2  0  0  0  0
 13  8  1  0  0  0  0
 14  4  1  0  0  0  0
 15  5  1  0  0  0  0
 16  7  1  0  0  0  0
 17  8  1  0  0  0  0
 18 13  2  0  0  0  0
 19 13  1  0  0  0  0
 20 18  1  0  0  0  0
 21 19  2  0  0  0  0
 22 21  1  0  0  0  0
 20 22  2  0  0  0  0
  3  5  2  0  0  0  0
M  END
> <#>
792

> <PLATE>
LAT010

> <ROW>
H

> <COL>
10

> <COORD>
H10

> <LATID>
LAT010H10

> <Supplier>
Chembridge

> <Suplier_CAT#>
5568198

> <Name>
Novel

> <Sec_Name>
176_H07

> <Concentration_(mM)>
2.5

> <IC50_(µM)>
47

> <Yeast_Active?>
-

> <Pubchem_CID>
1369659

$$$$
