
  -ISIS-  08130814242D

 20 21  0  0  0  0  0  0  0  0999 V2000
    4.4750   -3.3375    0.0000 C   0  0  0  0  0  0  0  0  0  0  0  0
    5.2750   -2.9792    0.0000 C   0  0  0  0  0  0  0  0  0  0  0  0
    4.4292   -4.1292    0.0000 C   0  0  0  0  0  0  0  0  0  0  0  0
    3.4292   -2.7167    0.0000 C   0  0  0  0  0  0  0  0  0  0  0  0
    5.8542   -4.2792    0.0000 C   0  0  3  0  0  0  0  0  0  0  0  0
    5.1000   -4.6167    0.0000 C   0  0  0  0  0  0  0  0  0  0  0  0
    5.9375   -3.4625    0.0000 C   0  0  0  0  0  0  0  0  0  0  0  0
    2.7042   -2.7167    0.0000 N   0  0  0  0  0  0  0  0  0  0  0  0
    3.6792   -4.4750    0.0000 O   0  0  0  0  0  0  0  0  0  0  0  0
    5.3542   -2.1542    0.0000 O   0  0  0  0  0  0  0  0  0  0  0  0
    2.7917   -1.5292    0.0000 C   0  0  0  0  0  0  0  0  0  0  0  0
    2.4042   -2.0917    0.0000 C   0  0  0  0  0  0  0  0  0  0  0  0
    2.4667   -0.8792    0.0000 C   0  0  0  0  0  0  0  0  0  0  0  0
    2.8542   -0.3042    0.0000 S   0  0  0  0  0  0  0  0  0  0  0  0
    6.1542   -4.8292    0.0000 C   0  0  0  0  0  0  0  0  0  0  0  0
    6.4542   -4.0292    0.0000 C   0  0  0  0  0  0  0  0  0  0  0  0
    1.3917   -1.4125    0.0000 C   0  0  0  0  0  0  0  0  0  0  0  0
    1.7167   -2.0542    0.0000 C   0  0  0  0  0  0  0  0  0  0  0  0
    1.7792   -0.8417    0.0000 C   0  0  0  0  0  0  0  0  0  0  0  0
    3.7375   -0.3917    0.0000 C   0  0  0  0  0  0  0  0  0  0  0  0
  2  1  1  0  0  0  0
  3  1  1  0  0  0  0
  4  1  2  0  0  0  0
  5  6  1  0  0  0  0
  6  3  1  0  0  0  0
  7  2  1  0  0  0  0
  8  4  1  0  0  0  0
  9  3  2  0  0  0  0
 10  2  2  0  0  0  0
 11 12  1  0  0  0  0
 12  8  1  0  0  0  0
 13 11  2  0  0  0  0
 14 13  1  0  0  0  0
 15  5  1  0  0  0  0
 16  5  1  0  0  0  0
 17 18  1  0  0  0  0
 18 12  2  0  0  0  0
 19 17  2  0  0  0  0
 20 14  1  0  0  0  0
  7  5  1  0  0  0  0
 13 19  1  0  0  0  0
M  END
> <#>
601

> <PLATE>
LAT008

> <ROW>
A

> <COL>
7

> <COORD>
A07

> <LATID>
LAT008A07

> <Supplier>
Chembridge

> <Suplier_CAT#>
5491383

> <Name>
Novel

> <Sec_Name>
143_A09

> <Concentration_(mM)>
2.5

> <IC50_(µM)>
40

> <Yeast_Active?>
-

> <Pubchem_CID>
870639

$$$$
