
  -ISIS-  08130814242D

 24 26  0  0  0  0  0  0  0  0999 V2000
   -6.7000    1.0625    0.0000 C   0  0  0  0  0  0  0  0  0  0  0  0
   -8.0667    3.3708    0.0000 C   0  0  3  0  0  0  0  0  0  0  0  0
   -8.0667   -1.2500    0.0000 C   0  0  0  0  0  0  0  0  0  0  0  0
   -6.7000    5.6875    0.0000 C   0  0  0  0  0  0  0  0  0  0  0  0
  -12.1167    1.0625    0.0000 C   0  0  0  0  0  0  0  0  0  0  0  0
  -10.8042   -1.2500    0.0000 N   0  0  0  0  0  0  0  0  0  0  0  0
  -10.7542    3.3708    0.0000 N   0  0  0  0  0  0  0  0  0  0  0  0
   -8.0667    8.0500    0.0000 C   0  0  0  0  0  0  0  0  0  0  0  0
   -4.0208    1.0625    0.0000 C   0  0  0  0  0  0  0  0  0  0  0  0
   -4.0208    5.6875    0.0000 C   0  0  0  0  0  0  0  0  0  0  0  0
   -6.7000   10.3667    0.0000 C   0  0  0  0  0  0  0  0  0  0  0  0
   -2.7125    8.0500    0.0000 C   0  0  0  0  0  0  0  0  0  0  0  0
   -4.0208   10.3667    0.0000 C   0  0  0  0  0  0  0  0  0  0  0  0
    0.0000    8.6042    0.0000 O   0  0  0  0  0  0  0  0  0  0  0  0
   -2.1500   12.3667    0.0000 O   0  0  0  0  0  0  0  0  0  0  0  0
  -14.8042    1.0625    0.0000 O   0  0  0  0  0  0  0  0  0  0  0  0
    0.2292   11.2375    0.0000 C   0  0  0  0  0  0  0  0  0  0  0  0
   -2.6625    3.3833    0.0000 O   0  0  0  0  0  0  0  0  0  0  0  0
  -10.7542    8.0792    0.0000 Br  0  0  0  0  0  0  0  0  0  0  0  0
   -2.6625   -1.2542    0.0000 O   0  0  0  0  0  0  0  0  0  0  0  0
   -6.7000   -3.6167    0.0000 C   0  0  0  0  0  0  0  0  0  0  0  0
    0.0000   -1.2542    0.0000 C   0  0  0  0  0  0  0  0  0  0  0  0
    1.3292   -3.5667    0.0000 C   0  0  0  0  0  0  0  0  0  0  0  0
    4.0000   -3.5667    0.0000 C   0  0  0  0  0  0  0  0  0  0  0  0
  2  1  1  0  0  0  0
  3  1  2  0  0  0  0
  4  2  1  0  0  0  0
  5  6  1  0  0  0  0
  6  3  1  0  0  0  0
  7  2  1  0  0  0  0
  8  4  1  0  0  0  0
  9  1  1  0  0  0  0
 10  4  2  0  0  0  0
 11  8  2  0  0  0  0
 12 10  1  0  0  0  0
 13 12  2  0  0  0  0
 14 12  1  0  0  0  0
 15 13  1  0  0  0  0
 16  5  2  0  0  0  0
 17 14  1  0  0  0  0
 18  9  2  0  0  0  0
 19  8  1  0  0  0  0
 20  9  1  0  0  0  0
 21  3  1  0  0  0  0
 22 20  1  0  0  0  0
 23 22  1  0  0  0  0
 24 23  1  0  0  0  0
  7  5  1  0  0  0  0
 13 11  1  0  0  0  0
 17 15  1  0  0  0  0
M  END
> <#>
760

> <PLATE>
LAT010

> <ROW>
H

> <COL>
6

> <COORD>
H06

> <LATID>
LAT010H06

> <Supplier>
Chembridge

> <Suplier_CAT#>
5607145

> <Name>
Novel

> <Sec_Name>
183_G07

> <Concentration_(mM)>
2.5

> <IC50_(µM)>
27

> <Yeast_Active?>
-

> <Pubchem_CID>
1099472

$$$$
