
  -ISIS-  08130814242D

 20 22  0  0  0  0  0  0  0  0999 V2000
    6.0361   -1.0125    0.0000 C   0  0  0  0  0  0  0  0  0  0  0  0
    6.0349   -1.8398    0.0000 C   0  0  0  0  0  0  0  0  0  0  0  0
    6.7497   -2.2527    0.0000 C   0  0  0  0  0  0  0  0  0  0  0  0
    6.7479   -0.5997    0.0000 C   0  0  0  0  0  0  0  0  0  0  0  0
    7.4633   -1.0088    0.0000 C   0  0  0  0  0  0  0  0  0  0  0  0
    7.4681   -1.8353    0.0000 C   0  0  0  0  0  0  0  0  0  0  0  0
    8.2556   -2.0861    0.0000 N   0  0  3  0  0  0  0  0  0  0  0  0
    8.7376   -1.4146    0.0000 C   0  0  0  0  0  0  0  0  0  0  0  0
    8.2478   -0.7489    0.0000 C   0  0  0  0  0  0  0  0  0  0  0  0
    5.3215   -0.6001    0.0000 N   0  0  0  0  0  0  0  0  0  0  0  0
    4.6071   -1.0128    0.0000 C   0  0  0  0  0  0  0  0  0  0  0  0
    3.8926   -0.6005    0.0000 N   0  0  0  0  0  0  0  0  0  0  0  0
    3.1782   -1.0131    0.0000 C   0  0  0  0  0  0  0  0  0  0  0  0
    2.4293   -0.6757    0.0000 C   0  0  0  0  0  0  0  0  0  0  0  0
    1.8774   -1.2889    0.0000 C   0  0  0  0  0  0  0  0  0  0  0  0
    2.2901   -2.0033    0.0000 N   0  0  0  0  0  0  0  0  0  0  0  0
    3.0969   -1.8315    0.0000 S   0  0  0  0  0  0  0  0  0  0  0  0
    1.0569   -1.2029    0.0000 C   0  0  0  0  0  0  0  0  0  0  0  0
    4.6073   -1.8378    0.0000 O   0  0  0  0  0  0  0  0  0  0  0  0
    8.5151   -2.8692    0.0000 C   0  0  0  0  0  0  0  0  0  0  0  0
  4  1  1  0  0  0  0
  1 10  1  0  0  0  0
  5  6  1  0  0  0  0
 10 11  1  0  0  0  0
 11 12  1  0  0  0  0
  2  3  1  0  0  0  0
 12 13  1  0  0  0  0
 13 14  2  0  0  0  0
  3  6  2  0  0  0  0
  1  2  2  0  0  0  0
  5  4  2  0  0  0  0
  6  7  1  0  0  0  0
 14 15  1  0  0  0  0
 15 16  2  0  0  0  0
 16 17  1  0  0  0  0
 17 13  1  0  0  0  0
  7  8  1  0  0  0  0
 15 18  1  0  0  0  0
  8  9  2  0  0  0  0
 11 19  2  0  0  0  0
  9  5  1  0  0  0  0
  7 20  1  0  0  0  0
M  END
> <#>
273

> <PLATE>
LAT004

> <ROW>
A

> <COL>
6

> <COORD>
A06

> <LATID>
LAT004A06

> <Supplier>
Sigma

> <Suplier_CAT#>
S 0693

> <Name>
SB 204741

> <Concentration_(mM)>
2.5

> <IC50_(µM)>
7.5

> <Yeast_Active?>
-

> <Pubchem_CID>
3277600

> <Description>
5-HT2B serontonin receptor antagonist.

$$$$
