
  -ISIS-  08130814242D

 19 21  0  0  0  0  0  0  0  0999 V2000
    6.8000   -3.7292    0.0000 C   0  0  0  0  0  0  0  0  0  0  0  0
    6.0875   -3.3167    0.0000 C   0  0  3  0  0  0  0  0  0  0  0  0
    6.8000   -4.5542    0.0000 O   0  0  0  0  0  0  0  0  0  0  0  0
    6.0875   -2.4917    0.0000 C   0  0  0  0  0  0  0  0  0  0  0  0
    5.3708   -2.0792    0.0000 C   0  0  0  0  0  0  0  0  0  0  0  0
    6.0833   -4.9667    0.0000 C   0  0  0  0  0  0  0  0  0  0  0  0
    5.3708   -3.7333    0.0000 C   0  0  0  0  0  0  0  0  0  0  0  0
    7.5167   -3.3167    0.0000 O   0  0  0  0  0  0  0  0  0  0  0  0
    6.0833   -5.7917    0.0000 C   0  0  0  0  0  0  0  0  0  0  0  0
    5.3708   -1.2542    0.0000 C   0  0  0  0  0  0  0  0  0  0  0  0
    5.3708   -4.5542    0.0000 C   0  0  0  0  0  0  0  0  0  0  0  0
    5.3667   -6.2042    0.0000 Br  0  0  0  0  0  0  0  0  0  0  0  0
    6.8000   -2.0750    0.0000 C   0  0  0  0  0  0  0  0  0  0  0  0
    4.6542   -2.4958    0.0000 C   0  0  0  0  0  0  0  0  0  0  0  0
    6.7958   -1.2458    0.0000 C   0  0  0  0  0  0  0  0  0  0  0  0
    6.0792   -0.8375    0.0000 C   0  0  0  0  0  0  0  0  0  0  0  0
    4.6542   -0.8417    0.0000 C   0  0  0  0  0  0  0  0  0  0  0  0
    3.9417   -2.0833    0.0000 C   0  0  0  0  0  0  0  0  0  0  0  0
    3.9417   -1.2542    0.0000 C   0  0  0  0  0  0  0  0  0  0  0  0
  2  1  1  0  0  0  0
  3  1  1  0  0  0  0
  4  2  1  0  0  0  0
  5  4  1  0  0  0  0
  6  3  1  0  0  0  0
  7  2  1  0  0  0  0
  8  1  2  0  0  0  0
  9  6  2  0  0  0  0
 10  5  1  0  0  0  0
 11  6  1  0  0  0  0
 12  9  1  0  0  0  0
 13  4  2  0  0  0  0
 14  5  2  0  0  0  0
 15 13  1  0  0  0  0
 16 15  2  0  0  0  0
 17 10  2  0  0  0  0
 18 14  1  0  0  0  0
 19 18  2  0  0  0  0
  7 11  1  0  0  0  0
 16 10  1  0  0  0  0
 17 19  1  0  0  0  0
M  END
> <#>
202

> <PLATE>
LAT003

> <ROW>
B

> <COL>
7

> <COORD>
B07

> <LATID>
LAT003B07

> <Supplier>
Sigma

> <Suplier_CAT#>
B 1552

> <Name>
Bromoenol Lactone

> <Concentration_(mM)>
2.5

> <IC50_(µM)>
100

> <Yeast_Active?>
-

> <Pubchem_CID>
2445

> <Description>
Calcium-independent phospholipase A2 inhibitor; magnesium-dependent phosphatidate phosphohydrolase inhibitor

$$$$
