
  -ISIS-  08130814242D

  8  8  0  0  0  0  0  0  0  0999 V2000
    6.3243   -3.8067    0.0000 C   0  0  0  0  0  0  0  0  0  0  0  0
    6.9493   -2.7242    0.0000 C   0  0  0  0  0  0  0  0  0  0  0  0
    8.1993   -2.7242    0.0000 C   0  0  0  0  0  0  0  0  0  0  0  0
    8.8243   -3.8067    0.0000 C   0  0  0  0  0  0  0  0  0  0  0  0
    8.1993   -4.8892    0.0000 C   0  0  0  0  0  0  0  0  0  0  0  0
    6.9493   -4.8892    0.0000 C   0  0  0  0  0  0  0  0  0  0  0  0
    5.0743   -3.8067    0.0000 N   0  0  0  0  0  0  0  0  0  0  0  0
    6.3243   -1.6417    0.0000 N   0  0  0  0  0  0  0  0  0  0  0  0
  1  2  1  0  0  0  0
  2  3  2  0  0  0  0
  3  4  1  0  0  0  0
  4  5  2  0  0  0  0
  5  6  1  0  0  0  0
  1  6  2  0  0  0  0
  1  7  1  0  0  0  0
  2  8  1  0  0  0  0
M  END
> <#>
314

> <PLATE>
LAT004

> <ROW>
B

> <COL>
11

> <COORD>
B11

> <LATID>
LAT004B11

> <Supplier>
ICN

> <Suplier_CAT#>
151827

> <Name>
O-Phenylenediamine

> <Concentration_(mM)>
2.5

> <IC50_(µM)>
inactive

> <Yeast_Active?>
-

> <Pubchem_CID>
7243

$$$$
