
  -ISIS-  08130814242D

 20 22  0  0  0  0  0  0  0  0999 V2000
   -1.9333    1.2500    0.0000 C   0  0  0  0  0  0  0  0  0  0  0  0
   -2.4333    0.5333    0.0000 S   0  0  0  0  0  0  0  0  0  0  0  0
   -2.4333    1.9583    0.0000 C   0  0  0  0  0  0  0  0  0  0  0  0
   -1.0333    1.2500    0.0000 C   0  0  0  0  0  0  0  0  0  0  0  0
   -3.2708    1.6958    0.0000 C   0  0  0  0  0  0  0  0  0  0  0  0
   -3.2708    0.7958    0.0000 C   0  0  0  0  0  0  0  0  0  0  0  0
   -0.5958    0.4958    0.0000 N   0  0  3  0  0  0  0  0  0  0  0  0
   -4.0500    2.1333    0.0000 C   0  0  0  0  0  0  0  0  0  0  0  0
   -0.5958    2.0333    0.0000 O   0  0  0  0  0  0  0  0  0  0  0  0
   -4.0500    0.3500    0.0000 C   0  0  0  0  0  0  0  0  0  0  0  0
   -2.1500    2.8125    0.0000 Cl  0  0  0  0  0  0  0  0  0  0  0  0
   -4.8125    1.6708    0.0000 C   0  0  0  0  0  0  0  0  0  0  0  0
   -4.8125    0.8125    0.0000 C   0  0  0  0  0  0  0  0  0  0  0  0
    0.3042    0.6125    0.0000 C   0  0  0  0  0  0  0  0  0  0  0  0
   -1.0333   -0.2875    0.0000 C   0  0  0  0  0  0  0  0  0  0  0  0
   -5.6125    0.3708    0.0000 C   0  0  0  0  0  0  0  0  0  0  0  0
   -0.7125   -1.1042    0.0000 C   0  0  0  0  0  0  0  0  0  0  0  0
    0.9500   -0.0042    0.0000 C   0  0  0  0  0  0  0  0  0  0  0  0
    0.8875   -0.8875    0.0000 C   0  0  0  0  0  0  0  0  0  0  0  0
    0.1292   -1.3667    0.0000 C   0  0  0  0  0  0  0  0  0  0  0  0
  2  1  1  0  0  0  0
  3  1  2  0  0  0  0
  4  1  1  0  0  0  0
  5  3  1  0  0  0  0
  6  2  1  0  0  0  0
  7  4  1  0  0  0  0
  8  5  1  0  0  0  0
  9  4  2  0  0  0  0
 10  6  1  0  0  0  0
 11  3  1  0  0  0  0
 12  8  2  0  0  0  0
 13 10  2  0  0  0  0
 14  7  1  0  0  0  0
 15  7  1  0  0  0  0
 16 13  1  0  0  0  0
 17 15  1  0  0  0  0
 18 14  1  0  0  0  0
 19 18  1  0  0  0  0
 20 17  1  0  0  0  0
  5  6  2  0  0  0  0
 13 12  1  0  0  0  0
 20 19  1  0  0  0  0
M  END
> <#>
720

> <PLATE>
LAT009

> <ROW>
H

> <COL>
11

> <COORD>
H11

> <LATID>
LAT009H11

> <Supplier>
Chembridge

> <Suplier_CAT#>
5563040

> <Name>
Novel

> <Sec_Name>
168_H11

> <Concentration_(mM)>
2.5

> <IC50_(µM)>
55

> <Yeast_Active?>
-

> <Pubchem_CID>
693034

$$$$
