
  -ISIS-  08130814242D

 12 12  0  0  0  0  0  0  0  0999 V2000
    3.6000   -2.7233    0.0000 C   0  0  0  0  0  0  0  0  0  0  0  0
    4.8500   -2.7233    0.0000 C   0  0  0  0  0  0  0  0  0  0  0  0
    5.4750   -3.8058    0.0000 C   0  0  0  0  0  0  0  0  0  0  0  0
    6.7250   -3.8058    0.0000 C   0  0  0  0  0  0  0  0  0  0  0  0
    7.3500   -2.7233    0.0000 C   0  0  0  0  0  0  0  0  0  0  0  0
    8.6000   -2.7233    0.0000 C   0  0  0  0  0  0  0  0  0  0  0  0
    9.2250   -3.8058    0.0000 C   0  0  0  0  0  0  0  0  0  0  0  0
    8.6000   -4.8884    0.0000 C   0  0  0  0  0  0  0  0  0  0  0  0
    7.3500   -4.8884    0.0000 C   0  0  0  0  0  0  0  0  0  0  0  0
   10.4750   -3.8058    0.0000 O   0  0  0  0  0  0  0  0  0  0  0  0
    2.9750   -3.8058    0.0000 O   0  0  0  0  0  0  0  0  0  0  0  0
    2.9750   -1.6408    0.0000 O   0  0  0  0  0  0  0  0  0  0  0  0
  1  2  1  0  0  0  0
  2  3  2  0  0  0  0
  3  4  1  0  0  0  0
  4  5  1  0  0  0  0
  5  6  2  0  0  0  0
  6  7  1  0  0  0  0
  7  8  2  0  0  0  0
  8  9  1  0  0  0  0
  4  9  2  0  0  0  0
  7 10  1  0  0  0  0
  1 11  2  0  0  0  0
  1 12  1  0  0  0  0
M  END
> <#>
320

> <PLATE>
LAT004

> <ROW>
H

> <COL>
11

> <COORD>
H11

> <LATID>
LAT004H11

> <Supplier>
Sigma

> <Suplier_CAT#>
C-9008

> <Name>
P-Coumaric Acid

> <Concentration_(mM)>
2.5

> <IC50_(µM)>
inactive

> <Yeast_Active?>
-

> <Pubchem_CID>
322

$$$$
