
  -ISIS-  08130814242D

 33 35  0  0  0  0  0  0  0  0999 V2000
    9.0417   -6.6542    0.0000 Cl  0  0  0  0  0  0  0  0  0  0  0  0
    6.8667   -4.2917    0.0000 C   0  0  2  0  0  0  0  0  0  0  0  0
    5.4417   -4.2917    0.0000 C   0  0  0  0  0  0  0  0  0  0  0  0
    8.3000   -4.2917    0.0000 C   0  0  0  0  0  0  0  0  0  0  0  0
    6.1542   -3.8792    0.0000 C   0  0  0  0  0  0  0  0  0  0  0  0
    7.5792   -3.8792    0.0000 C   0  0  0  0  0  0  0  0  0  0  0  0
    6.8667   -5.1167    0.0000 C   0  0  2  0  0  0  0  0  0  0  0  0
    8.3000   -5.1167    0.0000 C   0  0  0  0  0  0  0  0  0  0  0  0
    4.7292   -3.8792    0.0000 C   0  0  0  0  0  0  0  0  0  0  0  0
    5.4417   -5.1167    0.0000 C   0  0  1  0  0  0  0  0  0  0  0  0
    4.0125   -4.2917    0.0000 C   0  0  0  0  0  0  0  0  0  0  0  0
    4.7292   -5.5292    0.0000 C   0  0  1  0  0  0  0  0  0  0  0  0
    4.0125   -5.1167    0.0000 C   0  0  0  0  0  0  0  0  0  0  0  0
    7.5792   -5.5292    0.0000 C   0  0  1  0  0  0  0  0  0  0  0  0
    6.1542   -5.5292    0.0000 C   0  0  0  0  0  0  0  0  0  0  0  0
    9.0167   -3.8792    0.0000 C   0  0  0  0  0  0  0  0  0  0  0  0
    7.5792   -3.0542    0.0000 O   0  0  0  0  0  0  0  0  0  0  0  0
    4.7292   -3.0542    0.0000 O   0  0  0  0  0  0  0  0  0  0  0  0
    7.5792   -6.3542    0.0000 N   0  0  3  0  0  0  0  0  0  0  0  0
    3.3000   -3.8792    0.0000 C   0  0  0  0  0  0  0  0  0  0  0  0
    6.8792   -3.5375    0.0000 O   0  0  0  0  0  0  0  0  0  0  0  0
    9.7292   -4.2917    0.0000 O   0  0  0  0  0  0  0  0  0  0  0  0
    6.1542   -3.0542    0.0000 O   0  0  0  0  0  0  0  0  0  0  0  0
    9.0167   -5.5375    0.0000 O   0  0  0  0  0  0  0  0  0  0  0  0
    4.1667   -6.1417    0.0000 O   0  0  0  0  0  0  0  0  0  0  0  0
    9.0250   -3.0542    0.0000 N   0  0  0  0  0  0  0  0  0  0  0  0
    3.3000   -5.5292    0.0000 C   0  0  0  0  0  0  0  0  0  0  0  0
    5.1417   -6.2417    0.0000 C   0  0  0  0  0  0  0  0  0  0  0  0
    3.3000   -3.0542    0.0000 O   0  0  0  0  0  0  0  0  0  0  0  0
    2.5792   -5.1167    0.0000 C   0  0  0  0  0  0  0  0  0  0  0  0
    2.5792   -4.2917    0.0000 C   0  0  0  0  0  0  0  0  0  0  0  0
    8.3000   -6.7667    0.0000 C   0  0  0  0  0  0  0  0  0  0  0  0
    6.8667   -6.7667    0.0000 C   0  0  0  0  0  0  0  0  0  0  0  0
  3  5  2  0  0  0  0
  4  6  1  0  0  0  0
  5  2  1  0  0  0  0
  6  2  1  0  0  0  0
  7  2  1  0  0  0  0
  8 14  1  0  0  0  0
  9  3  1  0  0  0  0
 10 15  1  6  0  0  0
 11  9  1  0  0  0  0
 12 10  1  0  0  0  0
 13 12  1  0  0  0  0
 14  7  1  0  0  0  0
  7 15  1  6  0  0  0
 16  4  1  0  0  0  0
 17  6  2  0  0  0  0
 18  9  2  0  0  0  0
 14 19  1  1  0  0  0
 20 11  1  0  0  0  0
  2 21  1  1  0  0  0
 22 16  2  0  0  0  0
 23  5  1  0  0  0  0
 24  8  1  0  0  0  0
 12 25  1  6  0  0  0
 26 16  1  0  0  0  0
 27 13  1  0  0  0  0
 12 28  1  1  0  0  0
 29 20  1  0  0  0  0
 30 27  2  0  0  0  0
 31 20  2  0  0  0  0
 32 19  1  0  0  0  0
 33 19  1  0  0  0  0
 10  3  1  0  0  0  0
  4  8  2  0  0  0  0
 13 11  2  0  0  0  0
 31 30  1  0  0  0  0
M  END
> <#>
101

> <PLATE>
LAT002

> <ROW>
E

> <COL>
4

> <COORD>
E04

> <LATID>
LAT002E04

> <Supplier>
Microsource

> <Suplier_CAT#>
01500566

> <Name>
Tetracycline Hydrochloride

> <Concentration_(mM)>
2.5

> <IC50_(µM)>
13

> <Yeast_Active?>
-

> <Pubchem_CID>
5497101

> <Description>
Antiamebic, Antibacterial, Antirickettsial

> <Source>
Natural Product; ex Streptomyces spp

$$$$
