
  -ISIS-  08130814242D

 55 58  0  0  0  0  0  0  0  0999 V2000
    0.8630   -3.8520    0.0000 C   0  0  0  0  0  0  0  0  0  0  0  0
    0.0903   -3.4058    0.0000 C   0  0  0  0  0  0  0  0  0  0  0  0
   -0.6825   -3.8520    0.0000 C   0  0  0  0  0  0  0  0  0  0  0  0
   -1.4553   -3.4058    0.0000 C   0  0  0  0  0  0  0  0  0  0  0  0
   -1.4553   -2.5135    0.0000 C   0  0  0  0  0  0  0  0  0  0  0  0
   -0.6825   -2.0674    0.0000 C   0  0  0  0  0  0  0  0  0  0  0  0
    0.0903   -2.5135    0.0000 C   0  0  0  0  0  0  0  0  0  0  0  0
    0.8630   -2.0674    0.0000 C   0  0  0  0  0  0  0  0  0  0  0  0
   -2.2281   -2.0674    0.0000 N   0  0  3  0  0  0  0  0  0  0  0  0
   -3.0008   -2.5135    0.0000 C   0  0  0  0  0  0  0  0  0  0  0  0
   -3.7736   -2.0674    0.0000 N   0  0  0  0  0  0  0  0  0  0  0  0
   -4.5464   -2.5135    0.0000 C   0  0  0  0  0  0  0  0  0  0  0  0
   -5.3191   -2.0674    0.0000 O   0  0  0  0  0  0  0  0  0  0  0  0
   -4.5464   -3.4058    0.0000 N   0  0  0  0  0  0  0  0  0  0  0  0
   -3.7736   -3.8520    0.0000 C   0  0  0  0  0  0  0  0  0  0  0  0
   -3.7736   -4.7443    0.0000 O   0  0  0  0  0  0  0  0  0  0  0  0
   -3.0008   -3.4058    0.0000 C   0  0  0  0  0  0  0  0  0  0  0  0
   -2.2281   -3.8520    0.0000 N   0  0  0  0  0  0  0  0  0  0  0  0
   -2.2281   -1.1750    0.0000 C   0  0  0  0  0  0  0  0  0  0  0  0
   -3.0008   -0.7289    0.0000 C   0  0  1  0  0  0  0  0  0  0  0  0
   -3.0008    0.1634    0.0000 C   0  0  1  0  0  0  0  0  0  0  0  0
   -2.2281    0.6096    0.0000 C   0  0  1  0  0  0  0  0  0  0  0  0
   -1.4553    0.1634    0.0000 C   0  0  0  0  0  0  0  0  0  0  0  0
   -0.6825    0.6096    0.0000 O   0  0  0  0  0  0  0  0  0  0  0  0
   -0.6825    1.5019    0.0000 P   0  0  3  0  0  0  0  0  0  0  0  0
   -1.0658    2.4067    0.0000 O   0  0  0  0  0  0  0  0  0  0  0  0
   -1.5361    1.2204    0.0000 O   0  5  0  0  0  0  0  0  0  0  0  0
    0.2098    1.5019    0.0000 O   0  0  0  0  0  0  0  0  0  0  0  0
    0.6560    2.2747    0.0000 P   0  0  3  0  0  0  0  0  0  0  0  0
    1.1021    3.0475    0.0000 O   0  0  0  0  0  0  0  0  0  0  0  0
    0.0582    2.9625    0.0000 O   0  5  0  0  0  0  0  0  0  0  0  0
    1.4287    1.8285    0.0000 O   0  0  0  0  0  0  0  0  0  0  0  0
    1.4287    0.9362    0.0000 C   0  0  0  0  0  0  0  0  0  0  0  0
    2.2015    0.4900    0.0000 C   0  0  2  0  0  0  0  0  0  0  0  0
    3.0167    0.8530    0.0000 C   0  0  2  0  0  0  0  0  0  0  0  0
    3.6138    0.1899    0.0000 C   0  0  2  0  0  0  0  0  0  0  0  0
    3.1676   -0.5829    0.0000 C   0  0  1  0  0  0  0  0  0  0  0  0
    2.2948   -0.3974    0.0000 O   0  0  0  0  0  0  0  0  0  0  0  0
    3.5306   -1.3981    0.0000 N   0  0  3  0  0  0  0  0  0  0  0  0
    3.0844   -2.1709    0.0000 C   0  0  0  0  0  0  0  0  0  0  0  0
    3.6815   -2.8340    0.0000 N   0  0  0  0  0  0  0  0  0  0  0  0
    4.4966   -2.4710    0.0000 C   0  0  0  0  0  0  0  0  0  0  0  0
    4.4034   -1.5836    0.0000 C   0  0  0  0  0  0  0  0  0  0  0  0
    5.1253   -1.0591    0.0000 N   0  0  0  0  0  0  0  0  0  0  0  0
    5.9404   -1.4221    0.0000 C   0  0  0  0  0  0  0  0  0  0  0  0
    6.0337   -2.3095    0.0000 N   0  0  0  0  0  0  0  0  0  0  0  0
    5.3118   -2.8340    0.0000 C   0  0  0  0  0  0  0  0  0  0  0  0
    5.4051   -3.7214    0.0000 N   0  0  0  0  0  0  0  0  0  0  0  0
    4.5012    0.2831    0.0000 O   0  0  0  0  0  0  0  0  0  0  0  0
    3.2022    1.7258    0.0000 O   0  0  0  0  0  0  0  0  0  0  0  0
   -2.7507    1.3715    0.0000 O   0  0  0  0  0  0  0  0  0  0  0  0
   -3.7736    0.6096    0.0000 O   0  0  0  0  0  0  0  0  0  0  0  0
   -3.7736   -1.1750    0.0000 O   0  0  0  0  0  0  0  0  0  0  0  0
    1.8333    3.0917    0.0000 Na  0  3  0  0  0  0  0  0  0  0  0  0
   -2.0042    2.0958    0.0000 Na  0  3  0  0  0  0  0  0  0  0  0  0
  1  2  1  0  0  0  0
  2  3  2  0  0  0  0
  3  4  1  0  0  0  0
  4  5  2  0  0  0  0
  5  6  1  0  0  0  0
  6  7  2  0  0  0  0
  2  7  1  0  0  0  0
  7  8  1  0  0  0  0
  5  9  1  0  0  0  0
  9 10  1  0  0  0  0
 10 11  2  0  0  0  0
 11 12  1  0  0  0  0
 12 13  2  0  0  0  0
 12 14  1  0  0  0  0
 14 15  1  0  0  0  0
 15 16  2  0  0  0  0
 15 17  1  0  0  0  0
 10 17  1  0  0  0  0
 17 18  2  0  0  0  0
  4 18  1  0  0  0  0
  9 19  1  0  0  0  0
 19 20  1  0  0  0  0
 20 21  1  0  0  0  0
 21 22  1  0  0  0  0
 22 23  1  0  0  0  0
 23 24  1  0  0  0  0
 24 25  1  0  0  0  0
 25 26  2  0  0  0  0
 25 27  1  0  0  0  0
 25 28  1  0  0  0  0
 28 29  1  0  0  0  0
 29 30  2  0  0  0  0
 29 31  1  0  0  0  0
 29 32  1  0  0  0  0
 32 33  1  0  0  0  0
 34 33  1  6  0  0  0
 34 35  1  0  0  0  0
 35 36  1  0  0  0  0
 36 37  1  0  0  0  0
 37 38  1  0  0  0  0
 34 38  1  0  0  0  0
 37 39  1  6  0  0  0
 39 40  1  0  0  0  0
 40 41  2  0  0  0  0
 41 42  1  0  0  0  0
 42 43  2  0  0  0  0
 39 43  1  0  0  0  0
 43 44  1  0  0  0  0
 44 45  2  0  0  0  0
 45 46  1  0  0  0  0
 46 47  2  0  0  0  0
 42 47  1  0  0  0  0
 47 48  1  0  0  0  0
 36 49  1  1  0  0  0
 35 50  1  1  0  0  0
 22 51  1  6  0  0  0
 21 52  1  6  0  0  0
 20 53  1  6  0  0  0
M  CHG  4  27  -1  31  -1  54   1  55   1
M  END
> <#>
479

> <PLATE>
LAT006

> <ROW>
G

> <COL>
11

> <COORD>
G11

> <LATID>
LAT006G11

> <Supplier>
Sigma

> <Suplier_CAT#>
F-6625

> <Name>
Flavin Adenine Dinucleotide

> <Concentration_(mM)>
2.5

> <IC50_(µM)>
inactive

> <Yeast_Active?>
-

> <Pubchem_CID>
656647

$$$$
