
  -ISIS-  08130814242D

  8  8  0  0  0  0  0  0  0  0999 V2000
    7.3127   -4.0099    0.0000 O   0  0  0  0  0  0  0  0  0  0  0  0
    6.7882   -3.2880    0.0000 C   0  0  0  0  0  0  0  0  0  0  0  0
    7.3127   -2.5661    0.0000 C   0  0  0  0  0  0  0  0  0  0  0  0
    8.1613   -2.8419    0.0000 C   0  0  0  0  0  0  0  0  0  0  0  0
    8.1613   -3.7342    0.0000 C   0  0  0  0  0  0  0  0  0  0  0  0
    5.8958   -3.2880    0.0000 C   0  0  0  0  0  0  0  0  0  0  0  0
    5.4497   -4.0608    0.0000 O   0  0  0  0  0  0  0  0  0  0  0  0
    5.4497   -2.5152    0.0000 O   0  0  0  0  0  0  0  0  0  0  0  0
  1  2  1  0  0  0  0
  2  3  2  0  0  0  0
  3  4  1  0  0  0  0
  4  5  2  0  0  0  0
  1  5  1  0  0  0  0
  2  6  1  0  0  0  0
  6  7  2  0  0  0  0
  6  8  1  0  0  0  0
M  END
> <#>
495

> <PLATE>
LAT007

> <ROW>
G

> <COL>
3

> <COORD>
G03

> <LATID>
LAT007G03

> <Supplier>
Aldrich

> <Suplier_CAT#>
F20505

> <Name>
Furoic Acid

> <Concentration_(mM)>
2.5

> <IC50_(µM)>
>100

> <Yeast_Active?>
-

> <Pubchem_CID>
6919

$$$$
