
  -ISIS-  08130814242D

 15 16  0  0  0  0  0  0  0  0999 V2000
    5.2042   -1.5667    0.0000 C   0  0  0  0  0  0  0  0  0  0  0  0
    4.3292   -1.0667    0.0000 N   0  0  0  0  0  0  0  0  0  0  0  0
    5.2042   -2.5667    0.0000 S   0  0  0  0  0  0  0  0  0  0  0  0
    3.4667   -2.5667    0.0000 C   0  0  0  0  0  0  0  0  0  0  0  0
   -0.0333   -3.5167    0.0000 C   0  0  3  0  0  0  0  0  0  0  0  0
    3.4667   -1.5667    0.0000 C   0  0  0  0  0  0  0  0  0  0  0  0
    2.6000   -3.0792    0.0000 C   0  0  0  0  0  0  0  0  0  0  0  0
    0.8417   -3.0167    0.0000 O   0  0  0  0  0  0  0  0  0  0  0  0
    1.7375   -2.5667    0.0000 C   0  0  0  0  0  0  0  0  0  0  0  0
    6.0917   -1.1042    0.0000 N   0  0  0  0  0  0  0  0  0  0  0  0
    2.6000   -1.0625    0.0000 C   0  0  0  0  0  0  0  0  0  0  0  0
   -0.8333   -3.9667    0.0000 F   0  0  0  0  0  0  0  0  0  0  0  0
   -1.0083   -3.1375    0.0000 F   0  0  0  0  0  0  0  0  0  0  0  0
   -0.2000   -4.5500    0.0000 F   0  0  0  0  0  0  0  0  0  0  0  0
    1.7375   -1.5667    0.0000 C   0  0  0  0  0  0  0  0  0  0  0  0
  2  1  2  0  0  0  0
  3  1  1  0  0  0  0
  4  3  1  0  0  0  0
  5  8  1  0  0  0  0
  6  2  1  0  0  0  0
  7  4  1  0  0  0  0
  8  9  1  0  0  0  0
  9  7  2  0  0  0  0
 10  1  1  0  0  0  0
 11  6  1  0  0  0  0
 12  5  1  0  0  0  0
 13  5  1  0  0  0  0
 14  5  1  0  0  0  0
 15 11  2  0  0  0  0
  4  6  2  0  0  0  0
  9 15  1  0  0  0  0
M  END
> <#>
272

> <PLATE>
LAT004

> <ROW>
H

> <COL>
5

> <COORD>
H05

> <LATID>
LAT004H05

> <Supplier>
Sigma

> <Suplier_CAT#>
R-116

> <Name>
Riluzole

> <Concentration_(mM)>
2.5

> <IC50_(µM)>
33

> <Yeast_Active?>
-

> <Pubchem_CID>
5070

> <Description>
Glutamate release inhibitor; anticonvulsant

$$$$
