
  -ISIS-  08130814242D

 20 20  0  0  0  0  0  0  0  0999 V2000
    8.7875   -4.3752    0.0000 C   0  0  0  0  0  0  0  0  0  0  0  0
   10.0375   -4.3752    0.0000 N   0  0  0  0  0  0  0  0  0  0  0  0
    8.1625   -5.4578    0.0000 O   0  0  0  0  0  0  0  0  0  0  0  0
    8.1625   -3.2927    0.0000 O   0  0  0  0  0  0  0  0  0  0  0  0
   10.6625   -3.2927    0.0000 C   0  0  0  0  0  0  0  0  0  0  0  0
    6.5375   -3.2927    0.0000 C   0  0  0  0  0  0  0  0  0  0  0  0
    5.9125   -4.3752    0.0000 C   0  0  0  0  0  0  0  0  0  0  0  0
    4.6625   -4.3752    0.0000 C   0  0  0  0  0  0  0  0  0  0  0  0
    4.0375   -3.2927    0.0000 C   0  0  0  0  0  0  0  0  0  0  0  0
    4.6625   -2.2102    0.0000 C   0  0  0  0  0  0  0  0  0  0  0  0
    5.9125   -2.2102    0.0000 C   0  0  0  0  0  0  0  0  0  0  0  0
    2.7875   -3.2927    0.0000 C   0  0  0  0  0  0  0  0  0  0  0  0
    6.5375   -1.1276    0.0000 C   0  0  3  0  0  0  0  0  0  0  0  0
    7.6200   -1.7526    0.0000 C   0  0  0  0  0  0  0  0  0  0  0  0
    5.4550   -0.5026    0.0000 C   0  0  0  0  0  0  0  0  0  0  0  0
    7.1625   -0.0451    0.0000 C   0  0  0  0  0  0  0  0  0  0  0  0
    6.5375   -5.4578    0.0000 C   0  0  3  0  0  0  0  0  0  0  0  0
    7.6200   -4.8328    0.0000 C   0  0  0  0  0  0  0  0  0  0  0  0
    7.1625   -6.5403    0.0000 C   0  0  0  0  0  0  0  0  0  0  0  0
    5.4550   -6.0828    0.0000 C   0  0  0  0  0  0  0  0  0  0  0  0
  1  2  1  0  0  0  0
  1  3  2  0  0  0  0
  1  4  1  0  0  0  0
  2  5  1  0  0  0  0
  6  7  1  0  0  0  0
  7  8  2  0  0  0  0
  8  9  1  0  0  0  0
  9 10  2  0  0  0  0
 10 11  1  0  0  0  0
  6 11  2  0  0  0  0
  9 12  1  0  0  0  0
 13 14  1  0  0  0  0
 13 16  1  0  0  0  0
 13 15  1  0  0  0  0
 11 13  1  0  0  0  0
 17 18  1  0  0  0  0
 17 20  1  0  0  0  0
 17 19  1  0  0  0  0
  7 17  1  0  0  0  0
  4  6  1  0  0  0  0
M  END
> <#>
382

> <PLATE>
LAT005

> <ROW>
F

> <COL>
9

> <COORD>
F09

> <LATID>
LAT005F09

> <Supplier>
Aldrich

> <Suplier_CAT#>
R746673

> <Name>
Terbutol

> <Concentration_(mM)>
2.5

> <IC50_(µM)>
6.7

> <Yeast_Active?>
-

> <Pubchem_CID>
15967

> <Description>
Herbicide

$$$$
