
  -ISIS-  08130814242D

 35 40  0  0  0  0  0  0  0  0999 V2000
    6.7417   -4.0667    0.0000 C   0  0  2  0  0  0  0  0  0  0  0  0
    7.6167   -4.5417    0.0000 C   0  0  2  0  0  0  0  0  0  0  0  0
    5.8667   -4.5417    0.0000 C   0  0  1  0  0  0  0  0  0  0  0  0
    6.7417   -3.0417    0.0000 C   0  0  2  0  0  0  0  0  0  0  0  0
    6.7542   -5.0792    0.0000 O   0  0  0  0  0  0  0  0  0  0  0  0
    4.0792   -4.5417    0.0000 C   0  0  2  0  0  0  0  0  0  0  0  0
    4.9667   -4.0667    0.0000 C   0  0  3  0  0  0  0  0  0  0  0  0
    8.4792   -4.0667    0.0000 C   0  0  0  0  0  0  0  0  0  0  0  0
    4.0792   -5.5667    0.0000 C   0  0  3  0  0  0  0  0  0  0  0  0
    7.6167   -2.5167    0.0000 C   0  0  1  0  0  0  0  0  0  0  0  0
    8.4792   -3.0417    0.0000 O   0  0  0  0  0  0  0  0  0  0  0  0
    5.8667   -5.5417    0.0000 C   0  0  1  0  0  0  0  0  0  0  0  0
    3.2167   -6.0917    0.0000 C   0  0  3  0  0  0  0  0  0  0  0  0
    7.6125   -1.6917    0.0000 C   0  0  0  0  0  0  0  0  0  0  0  0
    5.0042   -6.0417    0.0000 C   0  0  0  0  0  0  0  0  0  0  0  0
    5.8667   -2.5167    0.0000 C   0  0  0  0  0  0  0  0  0  0  0  0
    4.9667   -3.0417    0.0000 C   0  0  0  0  0  0  0  0  0  0  0  0
    3.2167   -4.0667    0.0000 C   0  0  0  0  0  0  0  0  0  0  0  0
    6.7667   -5.9917    0.0000 O   0  0  0  0  0  0  0  0  0  0  0  0
    6.7542   -6.9667    0.0000 C   0  0  0  0  0  0  0  0  0  0  0  0
    9.3667   -4.5792    0.0000 O   0  0  0  0  0  0  0  0  0  0  0  0
    2.3292   -5.5667    0.0000 C   0  0  2  0  0  0  0  0  0  0  0  0
    8.2917   -0.9625    0.0000 C   0  0  0  0  0  0  0  0  0  0  0  0
    6.7042   -1.2375    0.0000 C   0  0  0  0  0  0  0  0  0  0  0  0
    7.8375   -0.0625    0.0000 O   0  0  0  0  0  0  0  0  0  0  0  0
    6.8375   -0.2625    0.0000 C   0  0  0  0  0  0  0  0  0  0  0  0
    2.3292   -4.5417    0.0000 C   0  0  0  0  0  0  0  0  0  0  0  0
    7.6917   -7.5667    0.0000 O   0  0  0  0  0  0  0  0  0  0  0  0
    5.8667   -3.3292    0.0000 C   0  0  0  0  0  0  0  0  0  0  0  0
    6.7417   -2.0167    0.0000 C   0  0  0  0  0  0  0  0  0  0  0  0
    4.0792   -3.4042    0.0000 C   0  0  0  0  0  0  0  0  0  0  0  0
    4.0792   -6.6292    0.0000 C   0  0  0  0  0  0  0  0  0  0  0  0
    2.3292   -6.6292    0.0000 C   0  0  0  0  0  0  0  0  0  0  0  0
    1.4292   -6.0792    0.0000 O   0  0  0  0  0  0  0  0  0  0  0  0
    5.9917   -7.5042    0.0000 C   0  0  0  0  0  0  0  0  0  0  0  0
  2  1  1  0  0  0  0
  3  1  1  0  0  0  0
  4  1  1  0  0  0  0
  1  5  1  1  0  0  0
  6  7  1  0  0  0  0
  7  3  1  0  0  0  0
  8  2  1  0  0  0  0
  9 15  1  0  0  0  0
 10  4  1  0  0  0  0
 11 10  1  0  0  0  0
 12  3  1  0  0  0  0
 13  9  1  0  0  0  0
 10 14  1  6  0  0  0
 15 12  1  0  0  0  0
 16  4  1  0  0  0  0
 17 16  1  0  0  0  0
 18  6  1  0  0  0  0
 12 19  1  6  0  0  0
 20 19  1  0  0  0  0
 21  8  2  0  0  0  0
 22 13  1  0  0  0  0
 23 14  2  0  0  0  0
 24 14  1  0  0  0  0
 25 23  1  0  0  0  0
 26 24  2  0  0  0  0
 27 18  1  0  0  0  0
 28 20  2  0  0  0  0
  3 29  1  1  0  0  0
  4 30  1  6  0  0  0
  6 31  1  1  0  0  0
 32 13  1  0  0  0  0
 33 13  1  0  0  0  0
 22 34  1  1  0  0  0
 35 20  1  0  0  0  0
  2  5  1  1  0  0  0
  7 17  1  0  0  0  0
  8 11  1  0  0  0  0
  6  9  1  0  0  0  0
 25 26  1  0  0  0  0
 27 22  1  0  0  0  0
M  END
> <#>
9

> <PLATE>
LAT001

> <ROW>
A

> <COL>
3

> <COORD>
A03

> <LATID>
LAT001A03

> <Supplier>
Microsource

> <Suplier_CAT#>
00100492

> <Name>
3Beta-Hydroxydeoxodihydrogedunin

> <Concentration_(mM)>
2.5

> <IC50_(µM)>
27

> <Yeast_Active?>
-

> <Pubchem_CID>
3980897

> <Source>
Natural Product; ex Meliaceae spp

$$$$
