
  -ISIS-  08130814242D

 26 27  0  0  0  0  0  0  0  0999 V2000
    1.9875   -3.0875    0.0000 C   0  0  0  0  0  0  0  0  0  0  0  0
    3.7542   -3.0167    0.0000 C   0  0  0  0  0  0  0  0  0  0  0  0
    2.8667   -2.5500    0.0000 C   0  0  3  0  0  0  0  0  0  0  0  0
    3.7542   -4.0167    0.0000 C   0  0  0  0  0  0  0  0  0  0  0  0
    1.9875   -4.0792    0.0000 C   0  0  0  0  0  0  0  0  0  0  0  0
    2.8667   -4.5417    0.0000 N   0  0  0  0  0  0  0  0  0  0  0  0
    4.5917    0.4708    0.0000 N   0  3  0  0  0  0  0  0  0  0  0  0
    2.8667   -1.5500    0.0000 C   0  0  0  0  0  0  0  0  0  0  0  0
    1.1167   -2.5917    0.0000 C   0  0  0  0  0  0  0  0  0  0  0  0
    4.6125   -2.5042    0.0000 C   0  0  0  0  0  0  0  0  0  0  0  0
    3.7292   -0.0292    0.0000 C   0  0  0  0  0  0  0  0  0  0  0  0
    3.7292   -1.0292    0.0000 C   0  0  0  0  0  0  0  0  0  0  0  0
    5.4542   -0.0292    0.0000 O   0  5  0  0  0  0  0  0  0  0  0  0
    4.5917    1.4708    0.0000 O   0  0  0  0  0  0  0  0  0  0  0  0
    4.6000   -1.5042    0.0000 O   0  0  0  0  0  0  0  0  0  0  0  0
    0.2542   -3.1042    0.0000 O   0  0  0  0  0  0  0  0  0  0  0  0
    1.1042   -1.5917    0.0000 O   0  0  0  0  0  0  0  0  0  0  0  0
    5.4792   -2.9917    0.0000 O   0  0  0  0  0  0  0  0  0  0  0  0
    1.1417   -4.6167    0.0000 C   0  0  0  0  0  0  0  0  0  0  0  0
    4.6250   -4.5042    0.0000 C   0  0  0  0  0  0  0  0  0  0  0  0
    2.0042   -1.0500    0.0000 C   0  0  0  0  0  0  0  0  0  0  0  0
    2.8667    0.4583    0.0000 C   0  0  0  0  0  0  0  0  0  0  0  0
    2.0042   -0.0292    0.0000 C   0  0  0  0  0  0  0  0  0  0  0  0
    6.3375   -2.4792    0.0000 C   0  0  0  0  0  0  0  0  0  0  0  0
    0.2292   -1.1042    0.0000 C   0  0  0  0  0  0  0  0  0  0  0  0
    7.2042   -2.9667    0.0000 C   0  0  0  0  0  0  0  0  0  0  0  0
  2  3  1  0  0  0  0
  3  1  1  0  0  0  0
  4  6  1  0  0  0  0
  5  1  2  0  0  0  0
  6  5  1  0  0  0  0
  7 11  1  0  0  0  0
  8  3  1  0  0  0  0
  9  1  1  0  0  0  0
 10  2  1  0  0  0  0
 11 12  2  0  0  0  0
 12  8  1  0  0  0  0
 13  7  1  0  0  0  0
 14  7  2  0  0  0  0
 15 10  2  0  0  0  0
 16  9  2  0  0  0  0
 17  9  1  0  0  0  0
 18 10  1  0  0  0  0
 19  5  1  0  0  0  0
 20  4  1  0  0  0  0
 21  8  2  0  0  0  0
 22 23  2  0  0  0  0
 23 21  1  0  0  0  0
 24 18  1  0  0  0  0
 25 17  1  0  0  0  0
 26 24  1  0  0  0  0
  2  4  2  0  0  0  0
 22 11  1  0  0  0  0
M  CHG  2   7   1  13  -1
M  END
> <#>
258

> <PLATE>
LAT004

> <ROW>
B

> <COL>
4

> <COORD>
B04

> <LATID>
LAT004B04

> <Supplier>
Sigma

> <Suplier_CAT#>
N-144

> <Name>
Nitrendipine

> <Concentration_(mM)>
2.5

> <IC50_(µM)>
20

> <Yeast_Active?>
-

> <Pubchem_CID>
4507

> <Description>
Ca2+ channel blocker; antihypertensive

$$$$
