
  -ISIS-  08130814242D

 21 22  0  0  0  0  0  0  0  0999 V2000
    5.4000   -3.1167    0.0000 C   0  0  0  0  0  0  0  0  0  0  0  0
    4.7500   -3.5000    0.0000 C   0  0  0  0  0  0  0  0  0  0  0  0
    8.6375   -1.9875    0.0000 C   0  0  0  0  0  0  0  0  0  0  0  0
    9.2875   -2.3542    0.0000 N   0  0  0  0  0  0  0  0  0  0  0  0
    5.4000   -2.3667    0.0000 C   0  0  0  0  0  0  0  0  0  0  0  0
   11.2292   -1.2167    0.0000 N   0  0  0  0  0  0  0  0  0  0  0  0
    8.6375   -1.2375    0.0000 O   0  0  0  0  0  0  0  0  0  0  0  0
    4.7500   -1.9875    0.0000 C   0  0  0  0  0  0  0  0  0  0  0  0
    4.1000   -3.1167    0.0000 C   0  0  0  0  0  0  0  0  0  0  0  0
    9.9375   -1.9792    0.0000 C   0  0  0  0  0  0  0  0  0  0  0  0
    6.0500   -3.5000    0.0000 Cl  0  0  0  0  0  0  0  0  0  0  0  0
    4.1000   -2.3667    0.0000 C   0  0  0  0  0  0  0  0  0  0  0  0
    3.4500   -3.5000    0.0000 Cl  0  0  0  0  0  0  0  0  0  0  0  0
    9.9375   -1.2292    0.0000 C   0  0  0  0  0  0  0  0  0  0  0  0
   10.5792   -2.3500    0.0000 C   0  0  0  0  0  0  0  0  0  0  0  0
    6.0500   -2.0000    0.0000 O   0  0  0  0  0  0  0  0  0  0  0  0
   11.2375   -1.9667    0.0000 C   0  0  0  0  0  0  0  0  0  0  0  0
   10.5792   -0.8500    0.0000 C   0  0  0  0  0  0  0  0  0  0  0  0
    8.0000   -2.3667    0.0000 C   0  0  0  0  0  0  0  0  0  0  0  0
    6.7000   -2.3667    0.0000 C   0  0  0  0  0  0  0  0  0  0  0  0
    7.3500   -2.0000    0.0000 C   0  0  0  0  0  0  0  0  0  0  0  0
  2  1  2  0  0  0  0
  3 19  1  0  0  0  0
  4  3  1  0  0  0  0
  5  1  1  0  0  0  0
  6 17  1  0  0  0  0
  7  3  2  0  0  0  0
  8  5  2  0  0  0  0
  9  2  1  0  0  0  0
 10  4  1  0  0  0  0
 11  1  1  0  0  0  0
 12  8  1  0  0  0  0
 13  9  1  0  0  0  0
 14 10  2  0  0  0  0
 15 10  1  0  0  0  0
 16  5  1  0  0  0  0
 17 15  2  0  0  0  0
 18 14  1  0  0  0  0
 19 21  1  0  0  0  0
 20 16  1  0  0  0  0
 21 20  1  0  0  0  0
 12  9  2  0  0  0  0
 18  6  2  0  0  0  0
M  END
> <#>
700

> <PLATE>
LAT009

> <ROW>
D

> <COL>
9

> <COORD>
D09

> <LATID>
LAT009D09

> <Supplier>
Chembridge

> <Suplier_CAT#>
5558550

> <Name>
Novel

> <Sec_Name>
169_G03

> <Concentration_(mM)>
2.5

> <IC50_(µM)>
9

> <Yeast_Active?>
-

> <Pubchem_CID>
1722540

$$$$
