
  -ISIS-  08130814242D

 44 48  0  0  0  0  0  0  0  0999 V2000
   -2.7382   -2.4095    0.0000 C   0  0  0  0  0  0  0  0  0  0  0  0
   -3.5110   -1.9634    0.0000 C   0  0  0  0  0  0  0  0  0  0  0  0
   -3.5110   -1.0710    0.0000 C   0  0  0  0  0  0  0  0  0  0  0  0
   -2.7382   -0.6249    0.0000 C   0  0  0  0  0  0  0  0  0  0  0  0
   -1.9654   -1.0710    0.0000 N   0  3  0  0  0  0  0  0  0  0  0  0
   -1.9654   -1.9634    0.0000 C   0  0  0  0  0  0  0  0  0  0  0  0
   -1.1926   -0.6249    0.0000 C   0  0  1  0  0  0  0  0  0  0  0  0
   -1.0994    0.2625    0.0000 C   0  0  1  0  0  0  0  0  0  0  0  0
   -0.2265    0.4481    0.0000 C   0  0  1  0  0  0  0  0  0  0  0  0
    0.2196   -0.3247    0.0000 C   0  0  2  0  0  0  0  0  0  0  0  0
   -0.3775   -0.9878    0.0000 O   0  0  0  0  0  0  0  0  0  0  0  0
    1.1070   -0.4180    0.0000 C   0  0  0  0  0  0  0  0  0  0  0  0
    1.6315    0.3039    0.0000 O   0  0  0  0  0  0  0  0  0  0  0  0
    1.2686    1.1191    0.0000 P   0  0  3  0  0  0  0  0  0  0  0  0
    0.4534    0.7562    0.0000 O   0  0  0  0  0  0  0  0  0  0  0  0
    0.9057    1.9343    0.0000 O   0  0  0  0  0  0  0  0  0  0  0  0
    2.0838    1.4820    0.0000 O   0  0  0  0  0  0  0  0  0  0  0  0
    2.1770    2.3695    0.0000 P   0  0  3  0  0  0  0  0  0  0  0  0
    1.2146    2.6836    0.0000 O   0  0  0  0  0  0  0  0  0  0  0  0
    2.2703    3.2569    0.0000 O   0  5  0  0  0  0  0  0  0  0  0  0
    3.0645    2.2762    0.0000 O   0  0  0  0  0  0  0  0  0  0  0  0
    3.4274    1.4610    0.0000 C   0  0  0  0  0  0  0  0  0  0  0  0
    4.3148    1.3678    0.0000 C   0  0  2  0  0  0  0  0  0  0  0  0
    4.9119    2.0309    0.0000 C   0  0  2  0  0  0  0  0  0  0  0  0
    5.7271    1.6679    0.0000 C   0  0  2  0  0  0  0  0  0  0  0  0
    5.6338    0.7805    0.0000 C   0  0  1  0  0  0  0  0  0  0  0  0
    4.7610    0.5950    0.0000 O   0  0  0  0  0  0  0  0  0  0  0  0
    6.2970    0.1834    0.0000 N   0  0  3  0  0  0  0  0  0  0  0  0
    6.2037   -0.7040    0.0000 C   0  0  0  0  0  0  0  0  0  0  0  0
    7.0189   -1.0669    0.0000 N   0  0  0  0  0  0  0  0  0  0  0  0
    7.6159   -0.4038    0.0000 C   0  0  0  0  0  0  0  0  0  0  0  0
    7.1698    0.3690    0.0000 C   0  0  0  0  0  0  0  0  0  0  0  0
    7.6159    1.1417    0.0000 N   0  0  0  0  0  0  0  0  0  0  0  0
    8.5083    1.1417    0.0000 C   0  0  0  0  0  0  0  0  0  0  0  0
    8.9544    0.3690    0.0000 N   0  0  0  0  0  0  0  0  0  0  0  0
    8.5083   -0.4038    0.0000 C   0  0  0  0  0  0  0  0  0  0  0  0
    8.9544   -1.1766    0.0000 N   0  0  0  0  0  0  0  0  0  0  0  0
    6.4999    2.1141    0.0000 O   0  0  0  0  0  0  0  0  0  0  0  0
    4.7264    2.9037    0.0000 O   0  0  0  0  0  0  0  0  0  0  0  0
   -0.3469    1.1549    0.0000 O   0  0  0  0  0  0  0  0  0  0  0  0
   -1.5375    0.8430    0.0000 O   0  0  0  0  0  0  0  0  0  0  0  0
   -4.2837   -0.6249    0.0000 C   0  0  0  0  0  0  0  0  0  0  0  0
   -4.2837    0.2674    0.0000 O   0  0  0  0  0  0  0  0  0  0  0  0
   -5.0565   -1.0710    0.0000 N   0  0  0  0  0  0  0  0  0  0  0  0
  1  2  2  0  0  0  0
  2  3  1  0  0  0  0
  3  4  2  0  0  0  0
  4  5  1  0  0  0  0
  5  6  2  0  0  0  0
  1  6  1  0  0  0  0
  7  5  1  1  0  0  0
  7  8  1  0  0  0  0
  8  9  1  0  0  0  0
  9 10  1  0  0  0  0
 10 11  1  0  0  0  0
  7 11  1  0  0  0  0
 10 12  1  1  0  0  0
 12 13  1  0  0  0  0
 13 14  1  0  0  0  0
 14 15  2  0  0  0  0
 14 16  1  0  0  0  0
 14 17  1  0  0  0  0
 17 18  1  0  0  0  0
 18 19  2  0  0  0  0
 18 20  1  0  0  0  0
 18 21  1  0  0  0  0
 21 22  1  0  0  0  0
 23 22  1  6  0  0  0
 23 24  1  0  0  0  0
 24 25  1  0  0  0  0
 25 26  1  0  0  0  0
 26 27  1  0  0  0  0
 23 27  1  0  0  0  0
 26 28  1  6  0  0  0
 28 29  1  0  0  0  0
 29 30  2  0  0  0  0
 30 31  1  0  0  0  0
 31 32  2  0  0  0  0
 28 32  1  0  0  0  0
 32 33  1  0  0  0  0
 33 34  2  0  0  0  0
 34 35  1  0  0  0  0
 35 36  2  0  0  0  0
 31 36  1  0  0  0  0
 36 37  1  0  0  0  0
 25 38  1  1  0  0  0
 24 39  1  1  0  0  0
  9 40  1  6  0  0  0
  8 41  1  6  0  0  0
  3 42  1  0  0  0  0
 42 43  2  0  0  0  0
 42 44  1  0  0  0  0
M  CHG  2   5   1  20  -1
M  END
> <#>
481

> <PLATE>
LAT007

> <ROW>
A

> <COL>
2

> <COORD>
A02

> <LATID>
LAT007A02

> <Supplier>
Sigma

> <Suplier_CAT#>
N-1511

> <Name>
Beta-Nicotinamide Adenine Dinucleotide

> <Concentration_(mM)>
2.5

> <IC50_(µM)>
>100

> <Yeast_Active?>
-

> <Pubchem_CID>
925

$$$$
