
  -ISIS-  08130814242D

 23 25  0  0  0  0  0  0  0  0999 V2000
    5.5875   -2.0792    0.0000 C   0  0  0  0  0  0  0  0  0  0  0  0
    6.7792   -1.8292    0.0000 N   0  0  0  0  0  0  0  0  0  0  0  0
    6.2792   -2.3875    0.0000 C   0  0  0  0  0  0  0  0  0  0  0  0
    5.6667   -1.3375    0.0000 C   0  0  0  0  0  0  0  0  0  0  0  0
    2.9875   -2.0792    0.0000 C   0  0  0  0  0  0  0  0  0  0  0  0
    4.2875   -2.0792    0.0000 N   0  0  0  0  0  0  0  0  0  0  0  0
    6.4000   -1.1792    0.0000 C   0  0  0  0  0  0  0  0  0  0  0  0
    3.6375   -2.4542    0.0000 N   0  0  0  0  0  0  0  0  0  0  0  0
    4.9375   -2.4542    0.0000 C   0  0  0  0  0  0  0  0  0  0  0  0
    1.6875   -2.0792    0.0000 O   0  0  0  0  0  0  0  0  0  0  0  0
    2.9875   -1.3292    0.0000 O   0  0  0  0  0  0  0  0  0  0  0  0
    1.0375   -2.4500    0.0000 C   0  0  0  0  0  0  0  0  0  0  0  0
    2.3375   -2.4500    0.0000 C   0  0  0  0  0  0  0  0  0  0  0  0
    0.3875   -2.0667    0.0000 C   0  0  0  0  0  0  0  0  0  0  0  0
    5.1667   -0.7792    0.0000 C   0  0  0  0  0  0  0  0  0  0  0  0
    6.6375   -0.4667    0.0000 C   0  0  0  0  0  0  0  0  0  0  0  0
    1.0375   -3.2042    0.0000 C   0  0  0  0  0  0  0  0  0  0  0  0
    0.3875   -1.3167    0.0000 C   0  0  0  0  0  0  0  0  0  0  0  0
   -0.2500   -2.4500    0.0000 C   0  0  0  0  0  0  0  0  0  0  0  0
    5.4000   -0.0667    0.0000 C   0  0  0  0  0  0  0  0  0  0  0  0
    6.1375    0.0833    0.0000 C   0  0  0  0  0  0  0  0  0  0  0  0
   -0.2500   -3.2042    0.0000 C   0  0  0  0  0  0  0  0  0  0  0  0
    0.3875   -3.5792    0.0000 C   0  0  0  0  0  0  0  0  0  0  0  0
  2  3  1  0  0  0  0
  3  1  2  0  0  0  0
  4  1  1  0  0  0  0
  5  8  1  0  0  0  0
  6  9  2  0  0  0  0
  7  4  2  0  0  0  0
  8  6  1  0  0  0  0
  9  1  1  0  0  0  0
 10 13  1  0  0  0  0
 11  5  2  0  0  0  0
 12 10  1  0  0  0  0
 13  5  1  0  0  0  0
 14 12  1  0  0  0  0
 15  4  1  0  0  0  0
 16  7  1  0  0  0  0
 17 12  2  0  0  0  0
 18 14  1  0  0  0  0
 19 14  2  0  0  0  0
 20 15  2  0  0  0  0
 21 20  1  0  0  0  0
 22 23  2  0  0  0  0
 23 17  1  0  0  0  0
  7  2  1  0  0  0  0
 21 16  2  0  0  0  0
 22 19  1  0  0  0  0
M  END
> <#>
684

> <PLATE>
LAT009

> <ROW>
D

> <COL>
7

> <COORD>
D07

> <LATID>
LAT009D07

> <Supplier>
Chembridge

> <Suplier_CAT#>
5551241

> <Name>
Novel

> <Sec_Name>
165_D02

> <Concentration_(mM)>
2.5

> <IC50_(µM)>
21

> <Yeast_Active?>
-

> <Pubchem_CID>
NULL

$$$$
