
  -ISIS-  08130814242D

 19 20  0  0  0  0  0  0  0  0999 V2000
    3.7417   -1.1125    0.0000 S   0  0  3  0  0  0  0  0  0  0  0  0
    4.9042   -1.1125    0.0000 N   0  0  0  0  0  0  0  0  0  0  0  0
    5.2792   -1.7542    0.0000 C   0  0  0  0  0  0  0  0  0  0  0  0
    4.9042   -2.4042    0.0000 N   0  0  0  0  0  0  0  0  0  0  0  0
    6.0292   -1.7542    0.0000 N   0  0  0  0  0  0  0  0  0  0  0  0
    2.9917   -1.1167    0.0000 C   0  0  0  0  0  0  0  0  0  0  0  0
    4.1250   -1.7625    0.0000 O   0  0  0  0  0  0  0  0  0  0  0  0
    4.1167   -0.4625    0.0000 O   0  0  0  0  0  0  0  0  0  0  0  0
    6.4042   -2.4042    0.0000 C   0  0  0  0  0  0  0  0  0  0  0  0
    5.2792   -3.0542    0.0000 C   0  0  0  0  0  0  0  0  0  0  0  0
    6.0292   -3.0542    0.0000 C   0  0  0  0  0  0  0  0  0  0  0  0
    2.6250   -1.7667    0.0000 C   0  0  0  0  0  0  0  0  0  0  0  0
    2.6167   -0.4625    0.0000 C   0  0  0  0  0  0  0  0  0  0  0  0
    1.4917   -1.1250    0.0000 C   0  0  0  0  0  0  0  0  0  0  0  0
    0.7417   -1.1292    0.0000 N   0  0  0  0  0  0  0  0  0  0  0  0
    1.8667   -0.4667    0.0000 C   0  0  0  0  0  0  0  0  0  0  0  0
    1.8667   -1.7750    0.0000 C   0  0  0  0  0  0  0  0  0  0  0  0
    4.9042   -3.7042    0.0000 C   0  0  0  0  0  0  0  0  0  0  0  0
    7.1542   -2.4042    0.0000 C   0  0  0  0  0  0  0  0  0  0  0  0
  2  1  1  0  0  0  0
  3  2  1  0  0  0  0
  4  3  1  0  0  0  0
  5  3  2  0  0  0  0
  6  1  1  0  0  0  0
  7  1  2  0  0  0  0
  8  1  2  0  0  0  0
  9  5  1  0  0  0  0
 10  4  2  0  0  0  0
 11  9  2  0  0  0  0
 12  6  2  0  0  0  0
 13  6  1  0  0  0  0
 14 16  1  0  0  0  0
 15 14  1  0  0  0  0
 16 13  2  0  0  0  0
 17 12  1  0  0  0  0
 18 10  1  0  0  0  0
 19  9  1  0  0  0  0
 14 17  2  0  0  0  0
 10 11  1  0  0  0  0
M  END
> <#>
111

> <PLATE>
LAT002

> <ROW>
G

> <COL>
5

> <COORD>
G05

> <LATID>
LAT002G05

> <Supplier>
Microsource

> <Suplier_CAT#>
01500548

> <Name>
Sulfamethazine

> <Concentration_(mM)>
2.5

> <IC50_(µM)>
9.5

> <Yeast_Active?>
-

> <Pubchem_CID>
5327

> <Description>
Antibacterial

$$$$
