
  -ISIS-  08130814242D

 13 11  0  0  0  0  0  0  0  0999 V2000
   -3.7795    0.2863    0.0000 C   0  0  0  0  0  0  0  0  0  0  0  0
   -3.0693    1.5290    0.0000 N   0  0  0  0  0  0  0  0  0  0  0  0
   -3.0693    0.6992    0.0000 C   0  0  3  0  0  0  0  0  0  0  0  0
   -3.7795   -0.5435    0.0000 O   0  0  0  0  0  0  0  0  0  0  0  0
   -4.4940    0.6992    0.0000 O   0  0  0  0  0  0  0  0  0  0  0  0
   -2.3507    0.2863    0.0000 C   0  0  0  0  0  0  0  0  0  0  0  0
   -2.3507   -0.5435    0.0000 C   0  0  0  0  0  0  0  0  0  0  0  0
   -1.6417   -0.9542    0.0000 O   0  0  0  0  0  0  0  0  0  0  0  0
   -1.6385   -1.7845    0.0000 C   0  0  0  0  0  0  0  0  0  0  0  0
   -0.9282   -2.1967    0.0000 C   0  0  0  0  0  0  0  0  0  0  0  0
   -0.9262   -3.0262    0.0000 N   0  0  0  0  0  0  0  0  0  0  0  0
   -3.7795    2.0710    0.0000 H   0  0  0  0  0  0  0  0  0  0  0  0
   -3.7795    2.8966    0.0000 Cl  0  0  0  0  0  0  0  0  0  0  0  0
  6  7  2  0  0  0  0
  3  6  1  0  0  0  0
  7  8  1  0  0  0  0
  2  3  1  0  0  0  0
  1  3  1  0  0  0  0
  9 10  1  0  0  0  0
  8  9  1  0  0  0  0
 10 11  1  0  0  0  0
  1  4  2  0  0  0  0
  1  5  1  0  0  0  0
 12 13  1  0  0  0  0
M  END
> <#>
462

> <PLATE>
LAT006

> <ROW>
F

> <COL>
9

> <COORD>
F09

> <LATID>
LAT006F09

> <Supplier>
Fluka

> <Suplier_CAT#>
"06665"

> <Name>
L-Alpha-(Aminoethoxyvinyl)Glycine Hcl

> <Concentration_(mM)>
2.5

> <IC50_(µM)>
75

> <Yeast_Active?>
-

> <Pubchem_CID>
6436272

> <Description>
Herbicide

> <LATCA_Notes>
Also know AVG

$$$$
