
  -ISIS-  08130814242D

 12 12  0  0  0  0  0  0  0  0999 V2000
    4.0955   -2.8721    0.0000 C   0  0  3  0  0  0  0  0  0  0  0  0
    3.5793   -3.5137    0.0000 C   0  0  0  0  0  0  0  0  0  0  0  0
    3.8031   -4.3165    0.0000 O   0  0  0  0  0  0  0  0  0  0  0  0
    2.8100   -3.2240    0.0000 C   0  0  0  0  0  0  0  0  0  0  0  0
    2.1095   -3.6787    0.0000 O   0  0  0  0  0  0  0  0  0  0  0  0
    2.1900   -1.8966    0.0000 O   0  0  0  0  0  0  0  0  0  0  0  0
    4.9196   -2.9054    0.0000 C   0  0  3  0  0  0  0  0  0  0  0  0
    5.3605   -2.2054    0.0000 C   0  0  0  0  0  0  0  0  0  0  0  0
    6.1897   -2.2388    0.0000 O   0  0  0  0  0  0  0  0  0  0  0  0
    5.3071   -3.6346    0.0000 O   0  0  0  0  0  0  0  0  0  0  0  0
    2.8458   -2.4083    0.0000 C   0  0  0  0  0  0  0  0  0  0  0  0
    3.6375   -2.1875    0.0000 O   0  0  0  0  0  0  0  0  0  0  0  0
  2  3  2  0  0  0  0
  2  4  1  0  0  0  0
  4  5  2  0  0  0  0
  4 11  1  0  0  0  0
 11  6  2  0  0  0  0
  1  7  1  0  0  0  0
  7  8  1  0  0  0  0
  8  9  1  0  0  0  0
  7 10  1  0  0  0  0
  1  2  1  0  0  0  0
 11 12  1  0  0  0  0
  1 12  1  0  0  0  0
M  END
> <#>
322

> <PLATE>
LAT005

> <ROW>
B

> <COL>
2

> <COORD>
B02

> <LATID>
LAT005B02

> <Supplier>
Aldrich

> <Suplier_CAT#>
26,155-6

> <Name>
Dehydroascorbic Acid

> <Concentration_(mM)>
2.5

> <IC50_(µM)>
inactive

> <Yeast_Active?>
-

> <Pubchem_CID>
5316434

$$$$
