
  -ISIS-  08130814242D

 19 20  0  0  0  0  0  0  0  0999 V2000
   -0.8000   -0.2542    0.0000 S   0  0  3  0  0  0  0  0  0  0  0  0
   -1.4458    0.1000    0.0000 C   0  0  0  0  0  0  0  0  0  0  0  0
   -1.4458    0.8458    0.0000 C   0  0  0  0  0  0  0  0  0  0  0  0
   -0.8000    1.2208    0.0000 N   0  3  0  0  0  0  0  0  0  0  0  0
   -0.1625   -0.6375    0.0000 N   0  0  0  0  0  0  0  0  0  0  0  0
   -1.1625   -0.9000    0.0000 O   0  0  0  0  0  0  0  0  0  0  0  0
   -0.4208    0.3708    0.0000 O   0  0  0  0  0  0  0  0  0  0  0  0
   -0.1625    0.8500    0.0000 O   0  5  0  0  0  0  0  0  0  0  0  0
   -0.8000    1.9625    0.0000 O   0  0  0  0  0  0  0  0  0  0  0  0
    0.4792   -0.2542    0.0000 C   0  0  0  0  0  0  0  0  0  0  0  0
   -2.0708   -0.2375    0.0000 C   0  0  0  0  0  0  0  0  0  0  0  0
   -2.0708    1.2125    0.0000 C   0  0  0  0  0  0  0  0  0  0  0  0
    1.1292   -0.6375    0.0000 C   0  0  0  0  0  0  0  0  0  0  0  0
    0.4792    0.4833    0.0000 C   0  0  0  0  0  0  0  0  0  0  0  0
   -2.7125    0.1208    0.0000 C   0  0  0  0  0  0  0  0  0  0  0  0
   -2.7125    0.8458    0.0000 C   0  0  0  0  0  0  0  0  0  0  0  0
    1.7667   -0.2542    0.0000 C   0  0  0  0  0  0  0  0  0  0  0  0
    1.1042    0.8458    0.0000 C   0  0  0  0  0  0  0  0  0  0  0  0
    1.7667    0.4833    0.0000 C   0  0  0  0  0  0  0  0  0  0  0  0
  2  1  1  0  0  0  0
  3  2  2  0  0  0  0
  4  3  1  0  0  0  0
  5  1  1  0  0  0  0
  6  1  2  0  0  0  0
  7  1  2  0  0  0  0
  8  4  1  0  0  0  0
  9  4  2  0  0  0  0
 10  5  1  0  0  0  0
 11  2  1  0  0  0  0
 12  3  1  0  0  0  0
 13 10  2  0  0  0  0
 14 10  1  0  0  0  0
 15 11  2  0  0  0  0
 16 15  1  0  0  0  0
 17 13  1  0  0  0  0
 18 14  2  0  0  0  0
 19 18  1  0  0  0  0
 16 12  2  0  0  0  0
 19 17  2  0  0  0  0
M  CHG  2   4   1   8  -1
M  END
> <#>
1057

> <PLATE>
LAT014

> <ROW>
A

> <COL>
4

> <COORD>
A04

> <LATID>
LAT014A04

> <Supplier>
Chembridge

> <Suplier_CAT#>
5145377

> <Name>
Novel

> <Concentration_(mM)>
2.5

> <IC50_(µM)>
93

> <Yeast_Active?>
-

> <Pubchem_CID>
229600

$$$$
