
  -ISIS-  08130814242D

 19 21  0  0  0  0  0  0  0  0999 V2000
   -2.1125    1.1458    0.0000 C   0  0  0  0  0  0  0  0  0  0  0  0
   -3.1208    1.6208    0.0000 N   0  0  0  0  0  0  0  0  0  0  0  0
   -2.2625    0.0208    0.0000 N   0  0  3  0  0  0  0  0  0  0  0  0
   -3.3708   -0.2042    0.0000 C   0  0  0  0  0  0  0  0  0  0  0  0
   -3.9208    0.8125    0.0000 C   0  0  0  0  0  0  0  0  0  0  0  0
   -1.1125    1.6958    0.0000 C   0  0  0  0  0  0  0  0  0  0  0  0
   -0.1208    1.1125    0.0000 N   0  0  0  0  0  0  0  0  0  0  0  0
    0.8792    1.6625    0.0000 C   0  0  0  0  0  0  0  0  0  0  0  0
   -1.4333   -0.7792    0.0000 C   0  0  0  0  0  0  0  0  0  0  0  0
    2.8542    2.7833    0.0000 C   0  0  0  0  0  0  0  0  0  0  0  0
    3.8542    3.3333    0.0000 Cl  0  0  0  0  0  0  0  0  0  0  0  0
    0.8792    2.8000    0.0000 C   0  0  0  0  0  0  0  0  0  0  0  0
    1.8542    1.0833    0.0000 C   0  0  0  0  0  0  0  0  0  0  0  0
    1.8792    3.3625    0.0000 C   0  0  0  0  0  0  0  0  0  0  0  0
    2.8375    1.6333    0.0000 C   0  0  0  0  0  0  0  0  0  0  0  0
   -3.9708   -1.1667    0.0000 C   0  0  0  0  0  0  0  0  0  0  0  0
   -5.0625    0.8500    0.0000 C   0  0  0  0  0  0  0  0  0  0  0  0
   -5.1125   -1.1500    0.0000 C   0  0  0  0  0  0  0  0  0  0  0  0
   -5.6708   -0.1292    0.0000 C   0  0  0  0  0  0  0  0  0  0  0  0
  2  1  2  0  0  0  0
  3  1  1  0  0  0  0
  4  3  1  0  0  0  0
  5  2  1  0  0  0  0
  6  1  1  0  0  0  0
  7  6  1  0  0  0  0
  8  7  1  0  0  0  0
  9  3  1  0  0  0  0
 10 15  1  0  0  0  0
 11 10  1  0  0  0  0
 12  8  2  0  0  0  0
 13  8  1  0  0  0  0
 14 12  1  0  0  0  0
 15 13  2  0  0  0  0
 16  4  1  0  0  0  0
 17  5  1  0  0  0  0
 18 16  2  0  0  0  0
 19 17  2  0  0  0  0
  4  5  2  0  0  0  0
 18 19  1  0  0  0  0
 14 10  2  0  0  0  0
M  END
> <#>
819

> <PLATE>
LAT011

> <ROW>
C

> <COL>
4

> <COORD>
C04

> <LATID>
LAT011C04

> <Supplier>
Chembridge

> <Suplier_CAT#>
5661480

> <Name>
Novel

> <Sec_Name>
206_C04

> <Concentration_(mM)>
2.5

> <IC50_(µM)>
19

> <Yeast_Active?>
-

> <Pubchem_CID>
715178

$$$$
