
  -ISIS-  08130814242D

 23 26  0  0  0  0  0  0  0  0999 V2000
   -0.6833    0.7833    0.0000 C   0  0  0  0  0  0  0  0  0  0  0  0
   -1.1458    1.4458    0.0000 N   0  0  3  0  0  0  0  0  0  0  0  0
   -0.6625    2.0833    0.0000 C   0  0  0  0  0  0  0  0  0  0  0  0
    0.1000    1.0208    0.0000 N   0  0  0  0  0  0  0  0  0  0  0  0
    0.1167    1.8208    0.0000 C   0  0  0  0  0  0  0  0  0  0  0  0
   -1.1458    0.1208    0.0000 N   0  0  3  0  0  0  0  0  0  0  0  0
   -1.9208    1.2000    0.0000 C   0  0  0  0  0  0  0  0  0  0  0  0
   -1.9208    0.3833    0.0000 C   0  0  0  0  0  0  0  0  0  0  0  0
   -0.8833    2.8833    0.0000 C   0  0  0  0  0  0  0  0  0  0  0  0
    0.8000    2.2708    0.0000 C   0  0  0  0  0  0  0  0  0  0  0  0
   -0.3000    3.4833    0.0000 O   0  0  0  0  0  0  0  0  0  0  0  0
   -0.8833   -0.6542    0.0000 C   0  0  0  0  0  0  0  0  0  0  0  0
   -2.6208    1.6000    0.0000 C   0  0  0  0  0  0  0  0  0  0  0  0
   -2.6208   -0.0292    0.0000 C   0  0  0  0  0  0  0  0  0  0  0  0
   -1.6833    3.1083    0.0000 C   0  0  0  0  0  0  0  0  0  0  0  0
    0.7542    3.0625    0.0000 C   0  0  0  0  0  0  0  0  0  0  0  0
    1.5167    1.8833    0.0000 C   0  0  0  0  0  0  0  0  0  0  0  0
   -3.3208    1.2000    0.0000 C   0  0  0  0  0  0  0  0  0  0  0  0
   -3.3208    0.3833    0.0000 C   0  0  0  0  0  0  0  0  0  0  0  0
   -2.2625    2.5000    0.0000 C   0  0  0  0  0  0  0  0  0  0  0  0
    2.1917    2.3458    0.0000 C   0  0  0  0  0  0  0  0  0  0  0  0
    1.4542    3.5000    0.0000 C   0  0  0  0  0  0  0  0  0  0  0  0
    2.1542    3.1708    0.0000 C   0  0  0  0  0  0  0  0  0  0  0  0
  2  1  1  0  0  0  0
  3  2  1  0  0  0  0
  4  1  2  0  0  0  0
  5  4  1  0  0  0  0
  6  1  1  0  0  0  0
  7  2  1  0  0  0  0
  8  6  1  0  0  0  0
  9  3  1  0  0  0  0
 10  5  1  0  0  0  0
 11  9  2  0  0  0  0
 12  6  1  0  0  0  0
 13  7  1  0  0  0  0
 14  8  1  0  0  0  0
 15  9  1  0  0  0  0
 16 10  2  0  0  0  0
 17 10  1  0  0  0  0
 18 13  2  0  0  0  0
 19 14  2  0  0  0  0
 20 15  1  0  0  0  0
 21 17  2  0  0  0  0
 22 16  1  0  0  0  0
 23 21  1  0  0  0  0
  8  7  2  0  0  0  0
  3  5  2  0  0  0  0
 19 18  1  0  0  0  0
 23 22  2  0  0  0  0
M  END
> <#>
808

> <PLATE>
LAT011

> <ROW>
H

> <COL>
2

> <COORD>
H02

> <LATID>
LAT011H02

> <Supplier>
Chembridge

> <Suplier_CAT#>
5658850

> <Name>
Novel

> <Sec_Name>
204_E10

> <Concentration_(mM)>
2.5

> <IC50_(µM)>
10

> <Yeast_Active?>
-

> <Pubchem_CID>
771761

$$$$
