
  -ISIS-  08130814242D

 19 20  0  0  0  0  0  0  0  0999 V2000
    2.3125   -2.1167    0.0000 C   0  0  0  0  0  0  0  0  0  0  0  0
    2.3042   -2.8667    0.0000 C   0  0  0  0  0  0  0  0  0  0  0  0
    1.6625   -1.7375    0.0000 C   0  0  0  0  0  0  0  0  0  0  0  0
    2.9542   -1.7375    0.0000 C   0  0  0  0  0  0  0  0  0  0  0  0
    4.8917   -2.2292    0.0000 N   0  0  0  0  0  0  0  0  0  0  0  0
    1.0042   -2.8542    0.0000 C   0  0  3  0  0  0  0  0  0  0  0  0
    3.6042   -2.1125    0.0000 N   0  0  0  0  0  0  0  0  0  0  0  0
    1.6542   -3.2375    0.0000 C   0  0  0  0  0  0  0  0  0  0  0  0
    1.0042   -2.1042    0.0000 C   0  0  0  0  0  0  0  0  0  0  0  0
    4.2875   -1.7917    0.0000 C   0  0  0  0  0  0  0  0  0  0  0  0
    1.6542   -0.9875    0.0000 O   0  0  0  0  0  0  0  0  0  0  0  0
    2.9542   -3.2417    0.0000 O   0  0  0  0  0  0  0  0  0  0  0  0
    5.5792   -1.9167    0.0000 C   0  0  0  0  0  0  0  0  0  0  0  0
    0.2542   -2.8542    0.0000 C   0  0  0  0  0  0  0  0  0  0  0  0
    0.8042   -3.5792    0.0000 C   0  0  0  0  0  0  0  0  0  0  0  0
    4.3542   -1.0417    0.0000 C   0  0  0  0  0  0  0  0  0  0  0  0
    5.0375   -0.7292    0.0000 C   0  0  0  0  0  0  0  0  0  0  0  0
    5.6500   -1.1667    0.0000 C   0  0  0  0  0  0  0  0  0  0  0  0
    6.2250   -2.2917    0.0000 C   0  0  0  0  0  0  0  0  0  0  0  0
  2  1  1  0  0  0  0
  3  1  1  0  0  0  0
  4  1  2  0  0  0  0
  5 10  1  0  0  0  0
  6  9  1  0  0  0  0
  7  4  1  0  0  0  0
  8  2  1  0  0  0  0
  9  3  1  0  0  0  0
 10  7  1  0  0  0  0
 11  3  2  0  0  0  0
 12  2  2  0  0  0  0
 13  5  2  0  0  0  0
 14  6  1  0  0  0  0
 15  6  1  0  0  0  0
 16 10  2  0  0  0  0
 17 16  1  0  0  0  0
 18 17  2  0  0  0  0
 19 13  1  0  0  0  0
  8  6  1  0  0  0  0
 18 13  1  0  0  0  0
M  END
> <#>
645

> <PLATE>
LAT009

> <ROW>
E

> <COL>
2

> <COORD>
E02

> <LATID>
LAT009E02

> <Supplier>
Chembridge

> <Suplier_CAT#>
5521417

> <Name>
Novel

> <Sec_Name>
146_F07

> <Concentration_(mM)>
2.5

> <IC50_(µM)>
58

> <Yeast_Active?>
-

> <Pubchem_CID>
870803

$$$$
