
  -ISIS-  08130814242D

 15 16  0  0  0  0  0  0  0  0999 V2000
    2.7755    1.6109    0.0000 C   0  0  0  0  0  0  0  0  0  0  0  0
    3.5102    0.5996    0.0000 C   0  0  0  0  0  0  0  0  0  0  0  0
    2.7755   -0.4117    0.0000 S   0  0  0  0  0  0  0  0  0  0  0  0
    1.5867   -0.0254    0.0000 C   0  0  0  0  0  0  0  0  0  0  0  0
    0.3978   -0.4117    0.0000 N   0  0  0  0  0  0  0  0  0  0  0  0
   -0.3369    0.5996    0.0000 C   0  0  2  0  0  0  0  0  0  0  0  0
    0.3978    1.6109    0.0000 C   0  0  0  0  0  0  0  0  0  0  0  0
    1.5867    1.2246    0.0000 N   0  0  3  0  0  0  0  0  0  0  0  0
   -1.5869    0.5996    0.0000 C   0  0  0  0  0  0  0  0  0  0  0  0
   -2.2119   -0.4829    0.0000 C   0  0  0  0  0  0  0  0  0  0  0  0
   -3.4619   -0.4829    0.0000 C   0  0  0  0  0  0  0  0  0  0  0  0
   -4.0869    0.5996    0.0000 C   0  0  0  0  0  0  0  0  0  0  0  0
   -3.4619    1.6821    0.0000 C   0  0  0  0  0  0  0  0  0  0  0  0
   -2.2119    1.6821    0.0000 C   0  0  0  0  0  0  0  0  0  0  0  0
   -1.1547    2.8771    0.0000 Cl  0  0  0  0  0  0  0  0  0  0  0  0
  1  2  1  0  0  0  0
  2  3  1  0  0  0  0
  3  4  1  0  0  0  0
  4  5  2  0  0  0  0
  5  6  1  0  0  0  0
  6  7  1  0  0  0  0
  7  8  1  0  0  0  0
  4  8  1  0  0  0  0
  1  8  1  0  0  0  0
  6  9  1  1  0  0  0
  9 10  2  0  0  0  0
 10 11  1  0  0  0  0
 11 12  2  0  0  0  0
 12 13  1  0  0  0  0
 13 14  2  0  0  0  0
  9 14  1  0  0  0  0
M  END
> <#>
433

> <PLATE>
LAT006

> <ROW>
A

> <COL>
6

> <COORD>
A06

> <LATID>
LAT006A06

> <Supplier>
Sigma

> <Suplier_CAT#>
L-9756

> <Name>
Levamisole Hcl

> <Concentration_(mM)>
2.5

> <IC50_(µM)>
inactive

> <Yeast_Active?>
-

> <Pubchem_CID>
26879

$$$$
