
  -ISIS-  08130814242D

 10 10  0  0  0  0  0  0  0  0999 V2000
    0.0792    0.8146    0.0000 C   0  0  0  0  0  0  0  0  0  0  0  0
    0.7042   -0.2679    0.0000 C   0  0  0  0  0  0  0  0  0  0  0  0
    0.7042    1.8971    0.0000 O   0  0  0  0  0  0  0  0  0  0  0  0
   -1.1708    0.8146    0.0000 C   0  0  0  0  0  0  0  0  0  0  0  0
   -1.7958   -0.2679    0.0000 C   0  0  0  0  0  0  0  0  0  0  0  0
   -3.0458   -0.2679    0.0000 C   0  0  0  0  0  0  0  0  0  0  0  0
   -3.6708    0.8146    0.0000 C   0  0  0  0  0  0  0  0  0  0  0  0
   -3.0458    1.8971    0.0000 C   0  0  0  0  0  0  0  0  0  0  0  0
   -1.7958    1.8971    0.0000 C   0  0  0  0  0  0  0  0  0  0  0  0
   -4.9208    0.8146    0.0000 O   0  0  0  0  0  0  0  0  0  0  0  0
  1  2  1  0  0  0  0
  4  5  1  0  0  0  0
  5  6  2  0  0  0  0
  6  7  1  0  0  0  0
  7  8  2  0  0  0  0
  8  9  1  0  0  0  0
  4  9  2  0  0  0  0
  1  3  2  0  0  0  0
  1  4  1  0  0  0  0
  7 10  1  0  0  0  0
M  END
> <#>
362

> <PLATE>
LAT005

> <ROW>
B

> <COL>
7

> <COORD>
B07

> <LATID>
LAT005B07

> <Supplier>
Aldrich

> <Suplier_CAT#>
278564

> <Name>
4'-Hydroxyacetophenone

> <Concentration_(mM)>
2.5

> <IC50_(µM)>
inactive

> <Yeast_Active?>
-

> <Pubchem_CID>
7469

$$$$
