
  -ISIS-  08130814242D

 11 11  0  0  0  0  0  0  0  0999 V2000
    3.2375   -3.8792    0.0000 C   0  0  0  0  0  0  0  0  0  0  0  0
    3.9500   -3.4667    0.0000 O   0  0  0  0  0  0  0  0  0  0  0  0
    2.5167   -3.4667    0.0000 O   0  0  0  0  0  0  0  0  0  0  0  0
    3.9500   -2.6417    0.0000 C   0  0  0  0  0  0  0  0  0  0  0  0
    3.9500   -0.9917    0.0000 C   0  0  0  0  0  0  0  0  0  0  0  0
    3.2375   -2.2292    0.0000 C   0  0  0  0  0  0  0  0  0  0  0  0
    4.6667   -2.2292    0.0000 C   0  0  0  0  0  0  0  0  0  0  0  0
    3.2375   -1.4042    0.0000 C   0  0  0  0  0  0  0  0  0  0  0  0
    4.6667   -1.4042    0.0000 C   0  0  0  0  0  0  0  0  0  0  0  0
    3.9417   -0.1667    0.0000 O   0  0  0  0  0  0  0  0  0  0  0  0
    3.2375   -4.7042    0.0000 C   0  0  0  0  0  0  0  0  0  0  0  0
  2  1  1  0  0  0  0
  3  1  2  0  0  0  0
  4  2  1  0  0  0  0
  5  9  2  0  0  0  0
  6  4  1  0  0  0  0
  7  4  2  0  0  0  0
  8  6  2  0  0  0  0
  9  7  1  0  0  0  0
 10  5  1  0  0  0  0
 11  1  1  0  0  0  0
  8  5  1  0  0  0  0
M  END
> <#>
20

> <PLATE>
LAT001

> <ROW>
D

> <COL>
4

> <COORD>
D04

> <LATID>
LAT001D04

> <Supplier>
Microsource

> <Suplier_CAT#>
00240740

> <Name>
4-Acetoxyphenol

> <Concentration_(mM)>
2.5

> <IC50_(µM)>
>100

> <Yeast_Active?>
-

> <Pubchem_CID>
96009

> <Description>
Antioxidant 

> <Source>
Natural Product; ex Ferulago aucheri, Salvia yosgadensis

$$$$
