
  -ISIS-  08130814242D

 21 23  0  0  0  0  0  0  0  0999 V2000
    7.4417    0.3333    0.0000 C   0  0  0  0  0  0  0  0  0  0  0  0
    8.1542   -0.0792    0.0000 N   0  0  3  0  0  0  0  0  0  0  0  0
    3.8625   -2.5542    0.0000 C   0  0  0  0  0  0  0  0  0  0  0  0
    3.8625   -3.3792    0.0000 C   0  0  0  0  0  0  0  0  0  0  0  0
    3.0792   -2.3042    0.0000 O   0  0  0  0  0  0  0  0  0  0  0  0
    3.0792   -3.6375    0.0000 O   0  0  0  0  0  0  0  0  0  0  0  0
    2.5917   -2.9750    0.0000 C   0  0  0  0  0  0  0  0  0  0  0  0
    6.7292   -0.0792    0.0000 C   0  0  0  0  0  0  0  0  0  0  0  0
    4.5750   -2.1417    0.0000 C   0  0  0  0  0  0  0  0  0  0  0  0
    7.4417    1.1625    0.0000 O   0  0  0  0  0  0  0  0  0  0  0  0
    6.7292   -0.9042    0.0000 C   0  0  0  0  0  0  0  0  0  0  0  0
    6.0167   -1.3167    0.0000 C   0  0  0  0  0  0  0  0  0  0  0  0
    6.0125   -2.1417    0.0000 C   0  0  0  0  0  0  0  0  0  0  0  0
    4.5750   -3.7917    0.0000 C   0  0  0  0  0  0  0  0  0  0  0  0
    5.2917   -2.5542    0.0000 C   0  0  0  0  0  0  0  0  0  0  0  0
    5.2917   -3.3792    0.0000 C   0  0  0  0  0  0  0  0  0  0  0  0
    8.1542   -0.9042    0.0000 C   0  0  0  0  0  0  0  0  0  0  0  0
    8.8750    0.3333    0.0000 C   0  0  0  0  0  0  0  0  0  0  0  0
    9.5917   -0.0792    0.0000 C   0  0  0  0  0  0  0  0  0  0  0  0
    8.8667   -1.3167    0.0000 C   0  0  0  0  0  0  0  0  0  0  0  0
    9.5917   -0.9042    0.0000 C   0  0  0  0  0  0  0  0  0  0  0  0
  2  1  1  0  0  0  0
  3  9  1  0  0  0  0
  4 14  1  0  0  0  0
  5  3  1  0  0  0  0
  6  4  1  0  0  0  0
  7  5  1  0  0  0  0
  8  1  1  0  0  0  0
  9 15  2  0  0  0  0
 10  1  2  0  0  0  0
 11  8  2  0  0  0  0
 12 11  1  0  0  0  0
 13 12  2  0  0  0  0
 14 16  2  0  0  0  0
 15 13  1  0  0  0  0
 16 15  1  0  0  0  0
 17  2  1  0  0  0  0
 18  2  1  0  0  0  0
 19 18  1  0  0  0  0
 20 17  1  0  0  0  0
 21 19  1  0  0  0  0
 21 20  1  0  0  0  0
  3  4  2  0  0  0  0
  6  7  1  0  0  0  0
M  END
> <#>
139

> <PLATE>
LAT002

> <ROW>
C

> <COL>
9

> <COORD>
C09

> <LATID>
LAT002C09

> <Supplier>
Microsource

> <Suplier_CAT#>
01500873

> <Name>
Piperine

> <Concentration_(mM)>
2.5

> <IC50_(µM)>
13

> <Yeast_Active?>
-

> <Pubchem_CID>
4840

> <Description>
Analeptic, Antibacterial

> <Source>
Natural Product; ex black pepper (Piper nigrum L.)

$$$$
