
  -ISIS-  08130814242D

 10  9  0  0  0  0  0  0  0  0999 V2000
    7.7779   -3.4174    0.0000 C   0  0  0  0  0  0  0  0  0  0  0  0
    7.1678   -3.5876    0.0000 C   0  0  0  0  0  0  0  0  0  0  0  0
    6.7154   -3.1444    0.0000 C   0  0  3  0  0  0  0  0  0  0  0  0
    6.2722   -3.5968    0.0000 C   0  0  0  0  0  0  0  0  0  0  0  0
    5.6588   -3.4391    0.0000 C   0  0  0  0  0  0  0  0  0  0  0  0
    5.2156   -3.8915    0.0000 O   0  0  0  0  0  0  0  0  0  0  0  0
    6.2630   -2.7012    0.0000 O   0  0  0  0  0  0  0  0  0  0  0  0
    7.1587   -2.6920    0.0000 C   0  0  0  0  0  0  0  0  0  0  0  0
    7.9355   -2.8040    0.0000 O   0  0  0  0  0  0  0  0  0  0  0  0
    8.2303   -3.8606    0.0000 O   0  0  0  0  0  0  0  0  0  0  0  0
  1  2  1  0  0  0  0
  2  3  1  0  0  0  0
  3  4  1  0  0  0  0
  4  5  1  0  0  0  0
  5  6  1  0  0  0  0
  3  7  1  0  0  0  0
  3  8  1  0  0  0  0
  1  9  2  0  0  0  0
  1 10  1  0  0  0  0
M  END
> <#>
458

> <PLATE>
LAT006

> <ROW>
B

> <COL>
9

> <COORD>
B09

> <LATID>
LAT006B09

> <Supplier>
Sigma

> <Suplier_CAT#>
M-4667

> <Name>
Dl-Mevalonic Acid

> <Concentration_(mM)>
2.5

> <IC50_(µM)>
inactive

> <Yeast_Active?>
-

> <Pubchem_CID>
449

$$$$
