
  -ISIS-  08130814242D

 19 21  0  0  0  0  0  0  0  0999 V2000
   -0.8708    0.9208    0.0000 C   0  0  0  0  0  0  0  0  0  0  0  0
   -1.8833    0.1458    0.0000 N   0  0  3  0  0  0  0  0  0  0  0  0
   -2.9000    0.8458    0.0000 N   0  0  0  0  0  0  0  0  0  0  0  0
   -1.3000    2.0500    0.0000 C   0  0  0  0  0  0  0  0  0  0  0  0
   -2.5333    2.0500    0.0000 C   0  0  0  0  0  0  0  0  0  0  0  0
    0.3042    0.6125    0.0000 N   0  0  0  0  0  0  0  0  0  0  0  0
   -1.8708   -1.0875    0.0000 C   0  0  0  0  0  0  0  0  0  0  0  0
    1.1292    1.4958    0.0000 C   0  0  0  0  0  0  0  0  0  0  0  0
   -3.2333    3.0625    0.0000 C   0  0  0  0  0  0  0  0  0  0  0  0
   -0.7958   -1.7000    0.0000 C   0  0  0  0  0  0  0  0  0  0  0  0
   -2.9500   -1.7167    0.0000 C   0  0  0  0  0  0  0  0  0  0  0  0
    2.3375    1.1958    0.0000 C   0  0  0  0  0  0  0  0  0  0  0  0
    0.7875    2.6708    0.0000 C   0  0  0  0  0  0  0  0  0  0  0  0
   -2.9208   -2.9542    0.0000 C   0  0  0  0  0  0  0  0  0  0  0  0
   -0.7708   -2.9375    0.0000 C   0  0  0  0  0  0  0  0  0  0  0  0
    1.6542    3.5708    0.0000 C   0  0  0  0  0  0  0  0  0  0  0  0
    3.2042    2.0958    0.0000 C   0  0  0  0  0  0  0  0  0  0  0  0
   -1.8500   -3.5667    0.0000 C   0  0  0  0  0  0  0  0  0  0  0  0
    2.8500    3.2833    0.0000 C   0  0  0  0  0  0  0  0  0  0  0  0
  2  1  1  0  0  0  0
  3  2  1  0  0  0  0
  4  1  2  0  0  0  0
  5  4  1  0  0  0  0
  6  1  1  0  0  0  0
  7  2  1  0  0  0  0
  8  6  1  0  0  0  0
  9  5  1  0  0  0  0
 10  7  2  0  0  0  0
 11  7  1  0  0  0  0
 12  8  1  0  0  0  0
 13  8  2  0  0  0  0
 14 11  2  0  0  0  0
 15 10  1  0  0  0  0
 16 13  1  0  0  0  0
 17 12  2  0  0  0  0
 18 14  1  0  0  0  0
 19 16  2  0  0  0  0
  3  5  2  0  0  0  0
 17 19  1  0  0  0  0
 18 15  2  0  0  0  0
M  END
> <#>
871

> <PLATE>
LAT011

> <ROW>
G

> <COL>
10

> <COORD>
G10

> <LATID>
LAT011G10

> <Supplier>
Chembridge

> <Suplier_CAT#>
5667782

> <Name>
Novel

> <Sec_Name>
210_H04

> <Concentration_(mM)>
2.5

> <IC50_(µM)>
25

> <Yeast_Active?>
-

> <Pubchem_CID>
867748

$$$$
