
  -ISIS-  08130814242D

 18 18  0  0  0  0  0  0  0  0999 V2000
  -10.3000    6.4292    0.0000 C   0  0  0  0  0  0  0  0  0  0  0  0
   -8.4167    5.4792    0.0000 S   0  0  0  0  0  0  0  0  0  0  0  0
  -10.3000    8.5792    0.0000 S   0  0  0  0  0  0  0  0  0  0  0  0
  -12.2167    5.5167    0.0000 N   0  0  3  0  0  0  0  0  0  0  0  0
   -4.8458    5.3875    0.0000 C   0  0  0  0  0  0  0  0  0  0  0  0
   -2.9500    6.2667    0.0000 C   0  0  0  0  0  0  0  0  0  0  0  0
   -6.6875    6.4292    0.0000 C   0  0  0  0  0  0  0  0  0  0  0  0
   -4.9125    3.2125    0.0000 O   0  0  0  0  0  0  0  0  0  0  0  0
   -2.9208    8.4167    0.0000 C   0  0  0  0  0  0  0  0  0  0  0  0
   -1.0708    5.3542    0.0000 C   0  0  0  0  0  0  0  0  0  0  0  0
    0.8667    8.4417    0.0000 C   0  0  0  0  0  0  0  0  0  0  0  0
   -0.9708    9.5875    0.0000 C   0  0  0  0  0  0  0  0  0  0  0  0
    0.8375    6.3000    0.0000 C   0  0  0  0  0  0  0  0  0  0  0  0
    2.7292    9.4292    0.0000 Br  0  0  0  0  0  0  0  0  0  0  0  0
  -14.0792    6.4667    0.0000 C   0  0  0  0  0  0  0  0  0  0  0  0
  -12.2167    3.4458    0.0000 C   0  0  0  0  0  0  0  0  0  0  0  0
  -10.3667    2.3000    0.0000 C   0  0  0  0  0  0  0  0  0  0  0  0
  -16.0000    5.5875    0.0000 C   0  0  0  0  0  0  0  0  0  0  0  0
  2  1  1  0  0  0  0
  3  1  2  0  0  0  0
  4  1  1  0  0  0  0
  5  7  1  0  0  0  0
  6  5  1  0  0  0  0
  7  2  1  0  0  0  0
  8  5  2  0  0  0  0
  9  6  2  0  0  0  0
 10  6  1  0  0  0  0
 11 13  1  0  0  0  0
 12  9  1  0  0  0  0
 13 10  2  0  0  0  0
 14 11  1  0  0  0  0
 15  4  1  0  0  0  0
 16  4  1  0  0  0  0
 17 16  1  0  0  0  0
 18 15  1  0  0  0  0
 12 11  2  0  0  0  0
M  END
> <#>
1042

> <PLATE>
LAT014

> <ROW>
B

> <COL>
2

> <COORD>
B02

> <LATID>
LAT014B02

> <Supplier>
Chembridge

> <Suplier_CAT#>
6858385

> <Name>
Novel

> <Concentration_(mM)>
2.5

> <IC50_(µM)>
88

> <Yeast_Active?>
-

> <Pubchem_CID>
2290111

$$$$
