
  -ISIS-  08130814242D

 25 26  0  0  0  0  0  0  0  0999 V2000
   -1.3458   -1.2500    0.0000 N   0  0  3  0  0  0  0  0  0  0  0  0
   -0.6625   -0.8500    0.0000 C   0  0  3  0  0  0  0  0  0  0  0  0
   -1.9208   -0.7292    0.0000 N   0  0  0  0  0  0  0  0  0  0  0  0
   -1.6208   -0.0042    0.0000 C   0  0  0  0  0  0  0  0  0  0  0  0
   -0.8458   -0.0875    0.0000 C   0  0  0  0  0  0  0  0  0  0  0  0
   -1.3458   -2.0292    0.0000 C   0  0  0  0  0  0  0  0  0  0  0  0
   -2.0000    0.6958    0.0000 C   0  0  0  0  0  0  0  0  0  0  0  0
   -2.0208   -2.4292    0.0000 C   0  0  0  0  0  0  0  0  0  0  0  0
    0.1000   -0.6875    0.0000 C   0  0  3  0  0  0  0  0  0  0  0  0
   -0.6625   -2.4292    0.0000 O   0  0  0  0  0  0  0  0  0  0  0  0
   -2.7000   -2.0500    0.0000 C   0  0  0  0  0  0  0  0  0  0  0  0
   -0.7458   -1.6292    0.0000 O   0  0  0  0  0  0  0  0  0  0  0  0
   -1.6208    1.3708    0.0000 O   0  0  0  0  0  0  0  0  0  0  0  0
   -2.7833    0.7125    0.0000 O   0  0  0  0  0  0  0  0  0  0  0  0
   -3.3833   -2.4292    0.0000 C   0  0  0  0  0  0  0  0  0  0  0  0
   -2.0208   -3.2042    0.0000 C   0  0  0  0  0  0  0  0  0  0  0  0
   -4.0625   -2.0042    0.0000 O   0  0  0  0  0  0  0  0  0  0  0  0
   -2.7000   -3.6042    0.0000 C   0  0  0  0  0  0  0  0  0  0  0  0
    0.8542   -0.5042    0.0000 C   0  0  0  0  0  0  0  0  0  0  0  0
    0.2792   -1.4500    0.0000 C   0  0  0  0  0  0  0  0  0  0  0  0
   -0.0625    0.0958    0.0000 C   0  0  0  0  0  0  0  0  0  0  0  0
   -3.3833   -3.2292    0.0000 C   0  0  0  0  0  0  0  0  0  0  0  0
   -3.1833    0.0333    0.0000 C   0  0  0  0  0  0  0  0  0  0  0  0
   -4.0458   -1.2292    0.0000 C   0  0  0  0  0  0  0  0  0  0  0  0
   -3.9625    0.0333    0.0000 C   0  0  0  0  0  0  0  0  0  0  0  0
  2  1  1  0  0  0  0
  3  1  1  0  0  0  0
  4  3  2  0  0  0  0
  5  2  1  0  0  0  0
  6  1  1  0  0  0  0
  7  4  1  0  0  0  0
  8  6  1  0  0  0  0
  9  2  1  0  0  0  0
 10  6  2  0  0  0  0
 11  8  1  0  0  0  0
 12  2  1  0  0  0  0
 13  7  2  0  0  0  0
 14  7  1  0  0  0  0
 15 11  2  0  0  0  0
 16  8  2  0  0  0  0
 17 15  1  0  0  0  0
 18 16  1  0  0  0  0
 19  9  1  0  0  0  0
 20  9  1  0  0  0  0
 21  9  1  0  0  0  0
 22 18  2  0  0  0  0
 23 14  1  0  0  0  0
 24 17  1  0  0  0  0
 25 23  1  0  0  0  0
  4  5  1  0  0  0  0
 15 22  1  0  0  0  0
M  END
> <#>
803

> <PLATE>
LAT011

> <ROW>
C

> <COL>
2

> <COORD>
C02

> <LATID>
LAT011C02

> <Supplier>
Chembridge

> <Suplier_CAT#>
5657030

> <Name>
Novel

> <Sec_Name>
203_H03

> <Concentration_(mM)>
2.5

> <IC50_(µM)>
inactive

> <Yeast_Active?>
-

> <Pubchem_CID>
873151

$$$$
