
  -ISIS-  08130814242D

 15 14  0  0  0  0  0  0  0  0999 V2000
    0.3372    0.7938    0.0000 C   0  0  0  0  0  0  0  0  0  0  0  0
    0.9622   -0.2888    0.0000 C   0  0  0  0  0  0  0  0  0  0  0  0
    0.9622    1.8763    0.0000 O   0  0  0  0  0  0  0  0  0  0  0  0
   -0.9128    0.7938    0.0000 C   0  0  0  0  0  0  0  0  0  0  0  0
   -1.5378   -0.2888    0.0000 C   0  0  0  0  0  0  0  0  0  0  0  0
   -2.7878   -0.2888    0.0000 C   0  0  0  0  0  0  0  0  0  0  0  0
   -3.4128    0.7938    0.0000 C   0  0  0  0  0  0  0  0  0  0  0  0
   -2.7878    1.8763    0.0000 C   0  0  0  0  0  0  0  0  0  0  0  0
   -1.5378    1.8763    0.0000 C   0  0  0  0  0  0  0  0  0  0  0  0
   -0.9128    2.9588    0.0000 O   0  0  0  0  0  0  0  0  0  0  0  0
   -4.6628    0.7938    0.0000 O   0  0  0  0  0  0  0  0  0  0  0  0
   -0.9128   -1.3713    0.0000 O   0  0  0  0  0  0  0  0  0  0  0  0
    2.2122   -0.2888    0.0000 H   0  0  0  0  0  0  0  0  0  0  0  0
    2.8372   -1.3713    0.0000 O   0  0  0  0  0  0  0  0  0  0  0  0
    4.0872   -1.3713    0.0000 H   0  0  0  0  0  0  0  0  0  0  0  0
  4  5  1  0  0  0  0
  5  6  2  0  0  0  0
  6  7  1  0  0  0  0
  7  8  2  0  0  0  0
  8  9  1  0  0  0  0
  4  9  2  0  0  0  0
  1  3  2  0  0  0  0
  1  4  1  0  0  0  0
  9 10  1  0  0  0  0
  7 11  1  0  0  0  0
  5 12  1  0  0  0  0
  1  2  1  0  0  0  0
 13 14  1  0  0  0  0
 14 15  1  0  0  0  0
M  END
> <#>
347

> <PLATE>
LAT005

> <ROW>
C

> <COL>
5

> <COORD>
C05

> <LATID>
LAT005C05

> <Supplier>
Aldrich

> <Suplier_CAT#>
T64602

> <Name>
2',4',6'-Trihydroxyacetophenone Monohydrate

> <Concentration_(mM)>
2.5

> <IC50_(µM)>
inactive

> <Yeast_Active?>
-

> <Pubchem_CID>
2775149

$$$$
