
  -ISIS-  08130814242D

 29 32  0  0  0  0  0  0  0  0999 V2000
    5.1917    0.2625    0.0000 N   0  0  3  0  0  0  0  0  0  0  0  0
    5.1917   -2.3958    0.0000 C   0  0  1  0  0  0  0  0  0  0  0  0
    4.4292    0.7042    0.0000 C   0  0  0  0  0  0  0  0  0  0  0  0
    4.4292    1.5917    0.0000 C   0  0  0  0  0  0  0  0  0  0  0  0
    5.9500    1.5917    0.0000 N   0  0  0  0  0  0  0  0  0  0  0  0
    4.7500   -3.1208    0.0000 C   0  0  3  0  0  0  0  0  0  0  0  0
    5.9500    0.7042    0.0000 C   0  0  0  0  0  0  0  0  0  0  0  0
    4.2208   -1.8500    0.0000 O   0  0  0  0  0  0  0  0  0  0  0  0
   -0.3333    2.7958    0.0000 N   0  3  0  0  0  0  0  0  0  0  0  0
    3.7042   -3.1208    0.0000 C   0  0  2  0  0  0  0  0  0  0  0  0
    3.3083   -2.4333    0.0000 C   0  0  1  0  0  0  0  0  0  0  0  0
    3.6708    2.0333    0.0000 C   0  0  0  0  0  0  0  0  0  0  0  0
    3.6625    0.2625    0.0000 N   0  0  0  0  0  0  0  0  0  0  0  0
    2.9042    1.5917    0.0000 N   0  0  0  0  0  0  0  0  0  0  0  0
    0.3500    2.7958    0.0000 C   0  0  0  0  0  0  0  0  0  0  0  0
    3.6708    2.7958    0.0000 S   0  0  0  0  0  0  0  0  0  0  0  0
    2.9042    0.7042    0.0000 C   0  0  0  0  0  0  0  0  0  0  0  0
   -0.6708    3.3875    0.0000 O   0  5  0  0  0  0  0  0  0  0  0  0
   -0.6708    2.2042    0.0000 O   0  0  0  0  0  0  0  0  0  0  0  0
    4.7500   -3.8000    0.0000 O   0  0  0  0  0  0  0  0  0  0  0  0
    0.8000    2.0208    0.0000 C   0  0  0  0  0  0  0  0  0  0  0  0
    0.8000    3.5708    0.0000 C   0  0  0  0  0  0  0  0  0  0  0  0
    3.7042   -3.8000    0.0000 O   0  0  0  0  0  0  0  0  0  0  0  0
    2.7875    3.1958    0.0000 C   0  0  0  0  0  0  0  0  0  0  0  0
    2.1125    2.7958    0.0000 C   0  0  0  0  0  0  0  0  0  0  0  0
    1.6792    3.5708    0.0000 C   0  0  0  0  0  0  0  0  0  0  0  0
    1.6833    2.0208    0.0000 C   0  0  0  0  0  0  0  0  0  0  0  0
    2.9417   -1.7958    0.0000 C   0  0  0  0  0  0  0  0  0  0  0  0
    2.2167   -1.7958    0.0000 O   0  0  0  0  0  0  0  0  0  0  0  0
  2  1  1  0  0  0  0
  3  1  1  0  0  0  0
  4  3  2  0  0  0  0
  5  7  2  0  0  0  0
  2  6  1  1  0  0  0
  7  1  1  0  0  0  0
  8  2  1  0  0  0  0
  9 15  1  0  0  0  0
 10  6  1  1  0  0  0
 11  8  1  0  0  0  0
 12  4  1  0  0  0  0
 13  3  1  0  0  0  0
 14 17  1  0  0  0  0
 15 21  1  0  0  0  0
 16 12  1  0  0  0  0
 17 13  2  0  0  0  0
 18  9  1  0  0  0  0
 19  9  2  0  0  0  0
 20  6  1  0  0  0  0
 21 27  2  0  0  0  0
 22 26  1  0  0  0  0
 23 10  1  0  0  0  0
 24 16  1  0  0  0  0
 25 24  1  0  0  0  0
 26 25  2  0  0  0  0
 27 25  1  0  0  0  0
 28 11  1  0  0  0  0
 29 28  1  0  0  0  0
  4  5  1  0  0  0  0
 11 10  1  1  0  0  0
 14 12  2  0  0  0  0
 15 22  2  0  0  0  0
M  CHG  2   9   1  18  -1
M  END
> <#>
255

> <PLATE>
LAT004

> <ROW>
G

> <COL>
3

> <COORD>
G03

> <LATID>
LAT004G03

> <Supplier>
Sigma

> <Suplier_CAT#>
N 2255

> <Name>
S-(4-Nitrobenzyl)-6-Thioinosine

> <Concentration_(mM)>
2.5

> <IC50_(µM)>
36

> <Yeast_Active?>
-

> <Pubchem_CID>
5129

> <Description>
Kinetin Analog

> <LATCA_Notes>
Phenocopies ACC addition

$$$$
