
  -ISIS-  08130814242D

 23 25  0  0  0  0  0  0  0  0999 V2000
   -4.0833    2.3125    0.0000 C   0  0  0  0  0  0  0  0  0  0  0  0
   -4.5208    3.0708    0.0000 C   0  0  0  0  0  0  0  0  0  0  0  0
   -4.5208    1.5500    0.0000 C   0  0  0  0  0  0  0  0  0  0  0  0
   -3.2000    2.3125    0.0000 C   0  0  0  0  0  0  0  0  0  0  0  0
   -5.8458    2.3125    0.0000 C   0  0  3  0  0  0  0  0  0  0  0  0
   -5.4083    1.5500    0.0000 C   0  0  0  0  0  0  0  0  0  0  0  0
   -5.4083    3.0708    0.0000 C   0  0  0  0  0  0  0  0  0  0  0  0
   -2.7625    3.0708    0.0000 N   0  0  0  0  0  0  0  0  0  0  0  0
   -4.0833    3.8583    0.0000 O   0  0  0  0  0  0  0  0  0  0  0  0
   -4.0833    0.7958    0.0000 O   0  0  0  0  0  0  0  0  0  0  0  0
   -6.7167    2.3125    0.0000 C   0  0  0  0  0  0  0  0  0  0  0  0
   -1.8833    3.0708    0.0000 C   0  0  3  0  0  0  0  0  0  0  0  0
   -7.1542    3.0708    0.0000 C   0  0  0  0  0  0  0  0  0  0  0  0
   -7.1542    1.5500    0.0000 C   0  0  0  0  0  0  0  0  0  0  0  0
   -1.4458    2.3125    0.0000 C   0  0  0  0  0  0  0  0  0  0  0  0
   -1.5625    3.9208    0.0000 C   0  0  0  0  0  0  0  0  0  0  0  0
   -8.0292    1.5500    0.0000 C   0  0  0  0  0  0  0  0  0  0  0  0
   -8.0292    3.0708    0.0000 C   0  0  0  0  0  0  0  0  0  0  0  0
   -0.5625    2.1958    0.0000 C   0  0  0  0  0  0  0  0  0  0  0  0
   -0.7458    4.1667    0.0000 C   0  0  0  0  0  0  0  0  0  0  0  0
    0.0792    2.7958    0.0000 C   0  0  0  0  0  0  0  0  0  0  0  0
   -8.4792    2.3125    0.0000 C   0  0  0  0  0  0  0  0  0  0  0  0
   -0.0208    3.6708    0.0000 C   0  0  0  0  0  0  0  0  0  0  0  0
  2  1  1  0  0  0  0
  3  1  1  0  0  0  0
  4  1  2  0  0  0  0
  5  6  1  0  0  0  0
  6  3  1  0  0  0  0
  7  2  1  0  0  0  0
  8  4  1  0  0  0  0
  9  2  2  0  0  0  0
 10  3  2  0  0  0  0
 11  5  1  0  0  0  0
 12  8  1  0  0  0  0
 13 11  1  0  0  0  0
 14 11  2  0  0  0  0
 15 12  1  0  0  0  0
 16 12  1  0  0  0  0
 17 14  1  0  0  0  0
 18 13  2  0  0  0  0
 19 15  1  0  0  0  0
 20 16  1  0  0  0  0
 21 19  1  0  0  0  0
 22 17  2  0  0  0  0
 23 20  1  0  0  0  0
  5  7  1  0  0  0  0
 21 23  1  0  0  0  0
 22 18  1  0  0  0  0
M  END
> <#>
868

> <PLATE>
LAT011

> <ROW>
D

> <COL>
10

> <COORD>
D10

> <LATID>
LAT011D10

> <Supplier>
Chembridge

> <Suplier_CAT#>
5666625

> <Name>
Novel

> <Sec_Name>
209_B08

> <Concentration_(mM)>
2.5

> <IC50_(µM)>
21

> <Yeast_Active?>
-

> <Pubchem_CID>
867719

$$$$
