
  -ISIS-  08130814242D

 23 24  0  0  0  0  0  0  0  0999 V2000
    2.9542   -1.3042    0.0000 C   0  0  0  0  0  0  0  0  0  0  0  0
    1.0042   -2.4292    0.0000 C   0  0  0  0  0  0  0  0  0  0  0  0
    3.6000   -2.4292    0.0000 N   0  0  0  0  0  0  0  0  0  0  0  0
    0.3500   -2.8042    0.0000 C   0  0  0  0  0  0  0  0  0  0  0  0
    1.0042   -1.6792    0.0000 C   0  0  0  0  0  0  0  0  0  0  0  0
    3.6000   -1.6792    0.0000 N   0  0  0  0  0  0  0  0  0  0  0  0
    1.6542   -1.3000    0.0000 O   0  0  0  0  0  0  0  0  0  0  0  0
    2.9542   -0.5542    0.0000 O   0  0  0  0  0  0  0  0  0  0  0  0
    2.3042   -1.6792    0.0000 C   0  0  0  0  0  0  0  0  0  0  0  0
    0.3500   -1.3000    0.0000 C   0  0  0  0  0  0  0  0  0  0  0  0
   -0.2958   -2.4292    0.0000 C   0  0  0  0  0  0  0  0  0  0  0  0
    4.2500   -2.8042    0.0000 C   0  0  0  0  0  0  0  0  0  0  0  0
    1.6542   -2.8042    0.0000 Br  0  0  0  0  0  0  0  0  0  0  0  0
    6.2000   -1.6792    0.0000 C   0  0  0  0  0  0  0  0  0  0  0  0
    4.9000   -2.4292    0.0000 C   0  0  0  0  0  0  0  0  0  0  0  0
    6.8500   -1.3042    0.0000 S   0  0  0  0  0  0  0  0  0  0  0  0
   -0.2958   -1.6792    0.0000 C   0  0  0  0  0  0  0  0  0  0  0  0
   -0.9458   -2.8042    0.0000 Cl  0  0  0  0  0  0  0  0  0  0  0  0
    5.5500   -1.3042    0.0000 C   0  0  0  0  0  0  0  0  0  0  0  0
    6.2000   -2.4292    0.0000 C   0  0  0  0  0  0  0  0  0  0  0  0
    4.9000   -1.6792    0.0000 C   0  0  0  0  0  0  0  0  0  0  0  0
    5.5500   -2.8042    0.0000 C   0  0  0  0  0  0  0  0  0  0  0  0
    7.5000   -1.6792    0.0000 C   0  0  0  0  0  0  0  0  0  0  0  0
  2  5  2  0  0  0  0
  3  6  1  0  0  0  0
  4  2  1  0  0  0  0
  5  7  1  0  0  0  0
  6  1  1  0  0  0  0
  7  9  1  0  0  0  0
  8  1  2  0  0  0  0
  9  1  1  0  0  0  0
 10  5  1  0  0  0  0
 11 17  1  0  0  0  0
 12  3  2  0  0  0  0
 13  2  1  0  0  0  0
 14 20  1  0  0  0  0
 15 12  1  0  0  0  0
 16 14  1  0  0  0  0
 17 10  2  0  0  0  0
 18 11  1  0  0  0  0
 19 21  1  0  0  0  0
 20 22  2  0  0  0  0
 21 15  2  0  0  0  0
 22 15  1  0  0  0  0
 23 16  1  0  0  0  0
  4 11  2  0  0  0  0
 19 14  2  0  0  0  0
M  END
> <#>
590

> <PLATE>
LAT008

> <ROW>
F

> <COL>
5

> <COORD>
F05

> <LATID>
LAT008F05

> <Supplier>
Chembridge

> <Suplier_CAT#>
5470708

> <Name>
Novel

> <Sec_Name>
134_F07

> <Concentration_(mM)>
2.5

> <IC50_(µM)>
0.52

> <Yeast_Active?>
-

> <Pubchem_CID>
1353615

$$$$
