
  -ISIS-  08130814242D

 27 30  0  0  0  0  0  0  0  0999 V2000
    4.3292   -3.1875    0.0000 N   0  0  3  0  0  0  0  0  0  0  0  0
    4.3500   -4.5000    0.0000 C   0  0  3  0  0  0  0  0  0  0  0  0
    3.3792   -2.8792    0.0000 C   0  0  0  0  0  0  0  0  0  0  0  0
    3.3792   -1.8792    0.0000 C   0  0  0  0  0  0  0  0  0  0  0  0
    4.3292   -1.5667    0.0000 N   0  0  0  0  0  0  0  0  0  0  0  0
    4.0167   -5.4542    0.0000 C   0  0  3  0  0  0  0  0  0  0  0  0
    4.9167   -2.3792    0.0000 C   0  0  0  0  0  0  0  0  0  0  0  0
    3.5542   -3.8917    0.0000 O   0  0  0  0  0  0  0  0  0  0  0  0
    3.0167   -5.4542    0.0000 C   0  0  3  0  0  0  0  0  0  0  0  0
    2.7292   -4.5000    0.0000 C   0  0  3  0  0  0  0  0  0  0  0  0
    2.5167   -1.3792    0.0000 C   0  0  0  0  0  0  0  0  0  0  0  0
    2.5167   -3.3792    0.0000 N   0  0  0  0  0  0  0  0  0  0  0  0
    1.6500   -1.8792    0.0000 N   0  0  0  0  0  0  0  0  0  0  0  0
    2.5167   -0.3792    0.0000 N   0  0  0  0  0  0  0  0  0  0  0  0
    1.6500   -2.8792    0.0000 C   0  0  0  0  0  0  0  0  0  0  0  0
    3.1792    0.3708    0.0000 C   0  0  0  0  0  0  0  0  0  0  0  0
    4.1542    0.6000    0.0000 C   0  0  0  0  0  0  0  0  0  0  0  0
    4.7542   -6.1292    0.0000 O   0  0  0  0  0  0  0  0  0  0  0  0
    4.1542    1.6000    0.0000 C   0  0  0  0  0  0  0  0  0  0  0  0
    2.4250   -6.2542    0.0000 O   0  0  0  0  0  0  0  0  0  0  0  0
    1.8042   -4.1167    0.0000 C   0  0  0  0  0  0  0  0  0  0  0  0
    0.9667   -4.6750    0.0000 O   0  0  0  0  0  0  0  0  0  0  0  0
    5.0042    0.0750    0.0000 C   0  0  0  0  0  0  0  0  0  0  0  0
    3.2875    2.0958    0.0000 C   0  0  0  0  0  0  0  0  0  0  0  0
    5.0042    2.0708    0.0000 C   0  0  0  0  0  0  0  0  0  0  0  0
    5.8792    1.5458    0.0000 C   0  0  0  0  0  0  0  0  0  0  0  0
    5.8792    0.5500    0.0000 C   0  0  0  0  0  0  0  0  0  0  0  0
  2  1  1  0  0  0  0
  3  1  1  0  0  0  0
  4  3  1  0  0  0  0
  5  7  2  0  0  0  0
  6  2  1  0  0  0  0
  7  1  1  0  0  0  0
  8  2  1  0  0  0  0
  9  6  1  0  0  0  0
 10  8  1  0  0  0  0
 11  4  2  0  0  0  0
 12  3  2  0  0  0  0
 13 15  2  0  0  0  0
 14 11  1  0  0  0  0
 15 12  1  0  0  0  0
 16 14  1  0  0  0  0
 17 16  1  0  0  0  0
 18  6  1  0  0  0  0
 19 17  1  0  0  0  0
 20  9  1  0  0  0  0
 21 10  1  0  0  0  0
 22 21  1  0  0  0  0
 23 17  2  0  0  0  0
 24 19  1  0  0  0  0
 25 19  2  0  0  0  0
 26 27  2  0  0  0  0
 27 23  1  0  0  0  0
  4  5  1  0  0  0  0
 10  9  1  0  0  0  0
 11 13  1  0  0  0  0
 25 26  1  0  0  0  0
M  END
> <#>
253

> <PLATE>
LAT004

> <ROW>
E

> <COL>
3

> <COORD>
E03

> <LATID>
LAT004E03

> <Supplier>
Sigma

> <Suplier_CAT#>
M-225

> <Name>
Metrifudil

> <Concentration_(mM)>
2.5

> <IC50_(µM)>
5.5

> <Yeast_Active?>
-

> <Pubchem_CID>
65710

> <Description>
Kinetin Analog

> <LATCA_Notes>
Phenocopies ACC addition

$$$$
