
  -ISIS-  08130814242D

 20 20  0  0  0  0  0  0  0  0999 V2000
   -4.2408    2.9500    0.0000 O   0  0  0  0  0  0  0  0  0  0  0  0
   -4.2408    2.3553    0.0000 C   0  0  0  0  0  0  0  0  0  0  0  0
   -3.7257    2.0580    0.0000 C   0  0  1  0  0  0  0  0  0  0  0  0
   -3.7257    1.4633    0.0000 N   0  0  0  0  0  0  0  0  0  0  0  0
   -4.2408    1.1660    0.0000 C   0  0  0  0  0  0  0  0  0  0  0  0
   -4.2408    0.5713    0.0000 C   0  0  3  0  0  0  0  0  0  0  0  0
   -3.7257    0.2739    0.0000 Cl  0  0  0  0  0  0  0  0  0  0  0  0
   -4.7558    0.2739    0.0000 Cl  0  0  0  0  0  0  0  0  0  0  0  0
   -4.7558    1.4633    0.0000 O   0  0  0  0  0  0  0  0  0  0  0  0
   -3.2107    2.3553    0.0000 C   0  0  1  0  0  0  0  0  0  0  0  0
   -2.6957    2.0580    0.0000 C   0  0  0  0  0  0  0  0  0  0  0  0
   -2.1807    2.3553    0.0000 C   0  0  0  0  0  0  0  0  0  0  0  0
   -1.6657    2.0580    0.0000 C   0  0  0  0  0  0  0  0  0  0  0  0
   -1.6657    1.4633    0.0000 C   0  0  0  0  0  0  0  0  0  0  0  0
   -1.1506    1.1660    0.0000 N   0  3  0  0  0  0  0  0  0  0  0  0
   -0.6356    1.4633    0.0000 O   0  5  0  0  0  0  0  0  0  0  0  0
   -1.1506    0.5713    0.0000 O   0  0  0  0  0  0  0  0  0  0  0  0
   -2.1807    1.1660    0.0000 C   0  0  0  0  0  0  0  0  0  0  0  0
   -2.6957    1.4633    0.0000 C   0  0  0  0  0  0  0  0  0  0  0  0
   -3.2107    2.9500    0.0000 O   0  0  0  0  0  0  0  0  0  0  0  0
  1  2  1  0  0  0  0
  2  3  1  0  0  0  0
  3  4  1  6  0  0  0
  4  5  1  0  0  0  0
  5  6  1  0  0  0  0
  6  7  1  0  0  0  0
  6  8  1  0  0  0  0
  5  9  2  0  0  0  0
  3 10  1  0  0  0  0
 10 11  1  0  0  0  0
 11 12  2  0  0  0  0
 12 13  1  0  0  0  0
 13 14  2  0  0  0  0
 14 15  1  0  0  0  0
 15 16  1  0  0  0  0
 15 17  2  0  0  0  0
 14 18  1  0  0  0  0
 18 19  2  0  0  0  0
 11 19  1  0  0  0  0
 10 20  1  6  0  0  0
M  CHG  2  15   1  16  -1
M  END
> <#>
403

> <PLATE>
LAT006

> <ROW>
C

> <COL>
2

> <COORD>
C02

> <LATID>
LAT006C02

> <Supplier>
Sigma

> <Suplier_CAT#>
C-0378

> <Name>
Chloramphenicol

> <Concentration_(mM)>
2.5

> <IC50_(µM)>
9.2

> <Yeast_Active?>
-

> <Pubchem_CID>
298

$$$$
