
  -ISIS-  08130814242D

 20 21  0  0  0  0  0  0  0  0999 V2000
   -4.0000    1.8208    0.0000 C   0  0  0  0  0  0  0  0  0  0  0  0
   -3.3208    2.2125    0.0000 C   0  0  0  0  0  0  0  0  0  0  0  0
    0.7500    2.1500    0.0000 C   0  0  0  0  0  0  0  0  0  0  0  0
   -4.0000    1.0333    0.0000 C   0  0  0  0  0  0  0  0  0  0  0  0
    0.7500    2.9333    0.0000 C   0  0  0  0  0  0  0  0  0  0  0  0
    0.0792    1.7833    0.0000 C   0  0  0  0  0  0  0  0  0  0  0  0
   -1.9708    2.2125    0.0000 N   0  0  0  0  0  0  0  0  0  0  0  0
   -2.6333    1.8208    0.0000 C   0  0  0  0  0  0  0  0  0  0  0  0
   -3.2958    0.6333    0.0000 C   0  0  0  0  0  0  0  0  0  0  0  0
    0.0792    3.3208    0.0000 C   0  0  0  0  0  0  0  0  0  0  0  0
   -0.5958    2.1500    0.0000 C   0  0  0  0  0  0  0  0  0  0  0  0
   -4.6833    2.2208    0.0000 Cl  0  0  0  0  0  0  0  0  0  0  0  0
   -1.2833    1.8208    0.0000 C   0  0  0  0  0  0  0  0  0  0  0  0
   -4.6833    0.6625    0.0000 F   0  0  0  0  0  0  0  0  0  0  0  0
   -2.6333    1.0333    0.0000 C   0  0  0  0  0  0  0  0  0  0  0  0
   -0.5958    2.9333    0.0000 C   0  0  0  0  0  0  0  0  0  0  0  0
    1.4167    1.7625    0.0000 O   0  0  0  0  0  0  0  0  0  0  0  0
    1.4167    3.3208    0.0000 O   0  0  0  0  0  0  0  0  0  0  0  0
    1.4167    0.9833    0.0000 C   0  0  0  0  0  0  0  0  0  0  0  0
    1.4292    4.0917    0.0000 C   0  0  0  0  0  0  0  0  0  0  0  0
  2  1  2  0  0  0  0
  3  6  2  0  0  0  0
  4  1  1  0  0  0  0
  5 10  2  0  0  0  0
  6 11  1  0  0  0  0
  7  8  1  0  0  0  0
  8  2  1  0  0  0  0
  9  4  2  0  0  0  0
 10 16  1  0  0  0  0
 11 13  1  0  0  0  0
 12  1  1  0  0  0  0
 13  7  1  0  0  0  0
 14  4  1  0  0  0  0
 15  9  1  0  0  0  0
 16 11  2  0  0  0  0
 17  3  1  0  0  0  0
 18  5  1  0  0  0  0
 19 17  1  0  0  0  0
 20 18  1  0  0  0  0
  8 15  2  0  0  0  0
  3  5  1  0  0  0  0
M  END
> <#>
578

> <PLATE>
LAT008

> <ROW>
B

> <COL>
4

> <COORD>
B04

> <LATID>
LAT008B04

> <Supplier>
Chembridge

> <Suplier_CAT#>
5461524

> <Name>
Novel

> <Sec_Name>
128_H07

> <Concentration_(mM)>
2.5

> <IC50_(µM)>
>100

> <Yeast_Active?>
-

> <Pubchem_CID>
961621

$$$$
