
  -ISIS-  08130814242D

 29 32  0  0  0  0  0  0  0  0999 V2000
    4.4333   -0.2583    0.0000 N   0  0  3  0  0  0  0  0  0  0  0  0
    4.4333   -2.5875    0.0000 C   0  0  1  0  0  0  0  0  0  0  0  0
    3.7708    0.1333    0.0000 C   0  0  0  0  0  0  0  0  0  0  0  0
    3.7708    0.9083    0.0000 C   0  0  0  0  0  0  0  0  0  0  0  0
    2.8083   -2.6292    0.0000 C   0  0  1  0  0  0  0  0  0  0  0  0
    5.0917    0.9083    0.0000 N   0  0  0  0  0  0  0  0  0  0  0  0
    4.0542   -3.2292    0.0000 C   0  0  3  0  0  0  0  0  0  0  0  0
    3.6000   -2.1125    0.0000 O   0  0  0  0  0  0  0  0  0  0  0  0
    5.0917    0.1333    0.0000 C   0  0  0  0  0  0  0  0  0  0  0  0
    3.1542   -3.2292    0.0000 C   0  0  1  0  0  0  0  0  0  0  0  0
    3.1208    1.3000    0.0000 C   0  0  0  0  0  0  0  0  0  0  0  0
    2.2875   -2.2875    0.0000 C   0  0  0  0  0  0  0  0  0  0  0  0
    3.1167   -0.2583    0.0000 N   0  0  0  0  0  0  0  0  0  0  0  0
    2.4583    0.9083    0.0000 N   0  0  0  0  0  0  0  0  0  0  0  0
    3.1208    1.7875    0.0000 N   0  0  0  0  0  0  0  0  0  0  0  0
    2.4583    0.1333    0.0000 C   0  0  0  0  0  0  0  0  0  0  0  0
    2.2958   -1.6583    0.0000 O   0  0  0  0  0  0  0  0  0  0  0  0
    4.0542   -3.8417    0.0000 O   0  0  0  0  0  0  0  0  0  0  0  0
    1.7292   -2.6167    0.0000 N   0  0  0  0  0  0  0  0  0  0  0  0
    3.1542   -3.8292    0.0000 O   0  0  0  0  0  0  0  0  0  0  0  0
    2.4875    2.3792    0.0000 C   0  0  0  0  0  0  0  0  0  0  0  0
    1.4333    3.0667    0.0000 C   0  0  0  0  0  0  0  0  0  0  0  0
    0.6750    3.0667    0.0000 C   0  0  0  0  0  0  0  0  0  0  0  0
    1.8125    2.3958    0.0000 C   0  0  0  0  0  0  0  0  0  0  0  0
    0.1625    3.6417    0.0000 I   0  0  0  0  0  0  0  0  0  0  0  0
    0.6750    1.7208    0.0000 C   0  0  0  0  0  0  0  0  0  0  0  0
    0.2958    2.3958    0.0000 C   0  0  0  0  0  0  0  0  0  0  0  0
    1.4333    1.7208    0.0000 C   0  0  0  0  0  0  0  0  0  0  0  0
    1.1792   -2.3375    0.0000 C   0  0  0  0  0  0  0  0  0  0  0  0
  2  1  1  0  0  0  0
  3  1  1  0  0  0  0
  4  3  2  0  0  0  0
  5  8  1  0  0  0  0
  6  9  2  0  0  0  0
  2  7  1  1  0  0  0
  8  2  1  0  0  0  0
  9  1  1  0  0  0  0
 10  7  1  1  0  0  0
 11  4  1  0  0  0  0
 12  5  1  0  0  0  0
 13  3  1  0  0  0  0
 14 16  1  0  0  0  0
 15 11  1  0  0  0  0
 16 13  2  0  0  0  0
 17 12  2  0  0  0  0
 18  7  1  0  0  0  0
 19 12  1  0  0  0  0
 20 10  1  0  0  0  0
 21 15  1  0  0  0  0
 22 24  2  0  0  0  0
 23 22  1  0  0  0  0
 24 21  1  0  0  0  0
 25 23  1  0  0  0  0
 26 28  2  0  0  0  0
 27 26  1  0  0  0  0
 28 24  1  0  0  0  0
 29 19  1  0  0  0  0
  4  6  1  0  0  0  0
  5 10  1  1  0  0  0
 14 11  2  0  0  0  0
 27 23  2  0  0  0  0
M  END
> <#>
238

> <PLATE>
LAT003

> <ROW>
F

> <COL>
11

> <COORD>
F11

> <LATID>
LAT003F11

> <Supplier>
Sigma

> <Suplier_CAT#>
I-146

> <Name>
Ib-Meca

> <Concentration_(mM)>
2.5

> <IC50_(µM)>
8.2

> <Yeast_Active?>
-

> <Pubchem_CID>
3668

> <Description>
Kinetin Analog

> <LATCA_Notes>
Phenocopies ACC addition

$$$$
