
  -ISIS-  08130814242D

 27 28  0  0  0  0  0  0  0  0999 V2000
    4.9856    1.4049    0.0000 C   0  0  0  0  0  0  0  0  0  0  0  0
    3.9017    0.7823    0.0000 O   0  0  0  0  0  0  0  0  0  0  0  0
    3.8990   -0.4677    0.0000 C   0  0  0  0  0  0  0  0  0  0  0  0
    4.9801   -1.0951    0.0000 O   0  0  0  0  0  0  0  0  0  0  0  0
    2.8150   -1.0903    0.0000 C   0  0  0  0  0  0  0  0  0  0  0  0
    2.8123   -2.3403    0.0000 C   0  0  0  0  0  0  0  0  0  0  0  0
    1.7284   -2.9629    0.0000 O   0  0  0  0  0  0  0  0  0  0  0  0
    0.6472   -2.3355    0.0000 C   0  0  2  0  0  0  0  0  0  0  0  0
    0.6500   -1.0855    0.0000 C   0  0  1  0  0  0  0  0  0  0  0  0
    1.7339   -0.4629    0.0000 C   0  0  2  0  0  0  0  0  0  0  0  0
    1.7367    0.7871    0.0000 C   0  0  0  0  0  0  0  0  0  0  0  0
    2.8206    1.4097    0.0000 C   0  0  0  0  0  0  0  0  0  0  0  0
    2.8233    2.6597    0.0000 O   0  0  0  0  0  0  0  0  0  0  0  0
   -0.4312   -0.4581    0.0000 C   0  0  0  0  0  0  0  0  0  0  0  0
   -0.4284    0.7919    0.0000 C   0  0  0  0  0  0  0  0  0  0  0  0
   -0.4367   -2.9581    0.0000 O   0  0  0  0  0  0  0  0  0  0  0  0
   -1.5178   -2.3307    0.0000 C   0  0  1  0  0  0  0  0  0  0  0  0
   -2.6018   -2.9533    0.0000 C   0  0  1  0  0  0  0  0  0  0  0  0
   -3.6829   -2.3259    0.0000 C   0  0  2  0  0  0  0  0  0  0  0  0
   -3.6801   -1.0759    0.0000 C   0  0  1  0  0  0  0  0  0  0  0  0
   -2.5962   -0.4533    0.0000 C   0  0  2  0  0  0  0  0  0  0  0  0
   -1.5151   -1.0807    0.0000 O   0  0  0  0  0  0  0  0  0  0  0  0
   -2.5935    0.7967    0.0000 C   0  0  0  0  0  0  0  0  0  0  0  0
   -3.6746    1.4241    0.0000 O   0  0  0  0  0  0  0  0  0  0  0  0
   -4.7613   -0.4485    0.0000 O   0  0  0  0  0  0  0  0  0  0  0  0
   -4.7668   -2.9485    0.0000 O   0  0  0  0  0  0  0  0  0  0  0  0
   -2.6045   -4.2033    0.0000 O   0  0  0  0  0  0  0  0  0  0  0  0
  1  2  1  0  0  0  0
  2  3  1  0  0  0  0
  3  4  2  0  0  0  0
  3  5  1  0  0  0  0
  5  6  2  0  0  0  0
  6  7  1  0  0  0  0
  7  8  1  0  0  0  0
  8  9  1  0  0  0  0
  9 10  1  0  0  0  0
  5 10  1  0  0  0  0
 10 11  1  6  0  0  0
 11 12  1  0  0  0  0
 12 13  2  0  0  0  0
  9 14  1  6  0  0  0
 14 15  2  0  0  0  0
  8 16  1  1  0  0  0
 17 16  1  1  0  0  0
 17 18  1  0  0  0  0
 18 19  1  0  0  0  0
 19 20  1  0  0  0  0
 20 21  1  0  0  0  0
 21 22  1  0  0  0  0
 17 22  1  0  0  0  0
 21 23  1  1  0  0  0
 23 24  1  0  0  0  0
 20 25  1  6  0  0  0
 19 26  1  1  0  0  0
 18 27  1  6  0  0  0
M  END
> <#>
399

> <PLATE>
LAT005

> <ROW>
G

> <COL>
11

> <COORD>
G11

> <LATID>
LAT005G11

> <Supplier>
Aldrich

> <Suplier_CAT#>
31,054-9

> <Name>
Secologanin

> <Concentration_(mM)>
2.5

> <IC50_(µM)>
>100

> <Yeast_Active?>
-

> <Pubchem_CID>
161276

$$$$
