
  -ISIS-  08130814242D

 26 29  0  0  0  0  0  0  0  0999 V2000
    8.4665   -3.9914    0.0000 C   0  0  0  0  0  0  0  0  0  0  0  0
    8.4749   -3.1830    0.0000 C   0  0  0  0  0  0  0  0  0  0  0  0
    7.7826   -2.7884    0.0000 C   0  0  1  0  0  0  0  0  0  0  0  0
    7.1029   -3.9861    0.0000 C   0  0  2  0  0  0  0  0  0  0  0  0
    7.0987   -3.1903    0.0000 C   0  0  2  0  0  0  0  0  0  0  0  0
    6.4109   -2.7980    0.0000 C   0  0  0  0  0  0  0  0  0  0  0  0
    5.7183   -3.1975    0.0000 C   0  0  0  0  0  0  0  0  0  0  0  0
    6.4192   -4.3855    0.0000 C   0  0  1  0  0  0  0  0  0  0  0  0
    5.7224   -3.9933    0.0000 C   0  0  1  0  0  0  0  0  0  0  0  0
    5.7308   -5.5857    0.0000 C   0  0  0  0  0  0  0  0  0  0  0  0
    6.4234   -5.1814    0.0000 C   0  0  0  0  0  0  0  0  0  0  0  0
    5.0430   -5.1886    0.0000 C   0  0  0  0  0  0  0  0  0  0  0  0
    5.0388   -4.3928    0.0000 C   0  0  2  0  0  0  0  0  0  0  0  0
    4.3461   -4.0006    0.0000 C   0  0  0  0  0  0  0  0  0  0  0  0
    3.6625   -4.4000    0.0000 C   0  0  0  0  0  0  0  0  0  0  0  0
    3.6667   -5.1958    0.0000 C   0  0  0  0  0  0  0  0  0  0  0  0
    4.3545   -5.5929    0.0000 C   0  0  0  0  0  0  0  0  0  0  0  0
    2.9533   -5.6102    0.0000 O   0  0  0  0  0  0  0  0  0  0  0  0
    5.0333   -3.5667    0.0000 C   0  0  0  0  0  0  0  0  0  0  0  0
    6.4125   -3.5583    0.0000 H   0  0  0  0  0  0  0  0  0  0  0  0
    6.8792   -2.3875    0.0000 C   0  0  0  0  0  0  0  0  0  0  0  0
    7.7750   -1.9625    0.0000 C   0  0  0  0  0  0  0  0  0  0  0  0
    8.5708   -1.7458    0.0000 C   0  0  0  0  0  0  0  0  0  0  0  0
    7.1172   -1.4646    0.0000 O   0  0  0  0  0  0  0  0  0  0  0  0
    5.7167   -4.8167    0.0000 H   0  0  0  0  0  0  0  0  0  0  0  0
    7.0958   -4.8083    0.0000 H   0  0  0  0  0  0  0  0  0  0  0  0
  8  4  1  0  0  0  0
  8  9  1  0  0  0  0
  9 13  1  0  0  0  0
 12 10  1  0  0  0  0
 10 11  1  0  0  0  0
 11  8  1  0  0  0  0
 12 13  1  0  0  0  0
 13 14  1  0  0  0  0
 14 15  1  0  0  0  0
 15 16  1  0  0  0  0
 16 17  1  0  0  0  0
 17 12  2  0  0  0  0
 16 18  2  0  0  0  0
  1  2  1  0  0  0  0
 13 19  1  1  0  0  0
  2  3  1  0  0  0  0
  8 20  1  1  0  0  0
  3  5  1  0  0  0  0
  5 21  1  1  0  0  0
  4  1  1  0  0  0  0
  3 22  1  1  0  0  0
  4  5  1  0  0  0  0
 22 23  1  0  0  0  0
  5  6  1  0  0  0  0
 22 24  2  0  0  0  0
  6  7  1  0  0  0  0
  9 25  1  6  0  0  0
  7  9  1  0  0  0  0
  4 26  1  6  0  0  0
M  END
> <#>
262

> <PLATE>
LAT004

> <ROW>
F

> <COL>
4

> <COORD>
F04

> <LATID>
LAT004F04

> <Supplier>
Sigma

> <Suplier_CAT#>
P 0130

> <Name>
Progesterone

> <Concentration_(mM)>
2.5

> <IC50_(µM)>
25

> <Yeast_Active?>
-

> <Pubchem_CID>
4920

> <Description>
Suppresses ovulation; induces maturation and secretory activity of the uterine endothelium

$$$$
