
  -ISIS-  08130814242D

 24 26  0  0  0  0  0  0  0  0999 V2000
   -0.1208    1.7500    0.0000 C   0  0  0  0  0  0  0  0  0  0  0  0
   -0.5833    0.9500    0.0000 N   0  0  3  0  0  0  0  0  0  0  0  0
    0.8000    1.7625    0.0000 C   0  0  0  0  0  0  0  0  0  0  0  0
   -1.5125    0.9500    0.0000 C   0  0  0  0  0  0  0  0  0  0  0  0
    1.3792    1.0208    0.0000 O   0  0  0  0  0  0  0  0  0  0  0  0
   -0.1125    0.1500    0.0000 C   0  0  0  0  0  0  0  0  0  0  0  0
   -0.5833    2.5458    0.0000 O   0  0  0  0  0  0  0  0  0  0  0  0
    1.3000    2.5208    0.0000 C   0  0  0  0  0  0  0  0  0  0  0  0
    2.2500    1.3500    0.0000 C   0  0  0  0  0  0  0  0  0  0  0  0
    2.1917    2.2958    0.0000 C   0  0  0  0  0  0  0  0  0  0  0  0
   -1.9833    1.7625    0.0000 C   0  0  0  0  0  0  0  0  0  0  0  0
   -1.9833    0.1458    0.0000 C   0  0  0  0  0  0  0  0  0  0  0  0
   -0.5625   -0.6500    0.0000 C   0  0  0  0  0  0  0  0  0  0  0  0
   -1.4833   -2.2667    0.0000 C   0  0  0  0  0  0  0  0  0  0  0  0
   -3.3958    0.9500    0.0000 C   0  0  0  0  0  0  0  0  0  0  0  0
   -2.9208    0.1458    0.0000 C   0  0  0  0  0  0  0  0  0  0  0  0
   -2.9208    1.7625    0.0000 C   0  0  0  0  0  0  0  0  0  0  0  0
   -1.9333   -3.0667    0.0000 F   0  0  0  0  0  0  0  0  0  0  0  0
   -1.5000   -0.6500    0.0000 C   0  0  0  0  0  0  0  0  0  0  0  0
   -0.0833   -1.4500    0.0000 C   0  0  0  0  0  0  0  0  0  0  0  0
   -1.9500   -1.4667    0.0000 C   0  0  0  0  0  0  0  0  0  0  0  0
   -0.5500   -2.2542    0.0000 C   0  0  0  0  0  0  0  0  0  0  0  0
   -4.3208    0.9500    0.0000 O   0  0  0  0  0  0  0  0  0  0  0  0
   -4.7833    1.7458    0.0000 C   0  0  0  0  0  0  0  0  0  0  0  0
  2  1  1  0  0  0  0
  3  1  1  0  0  0  0
  4  2  1  0  0  0  0
  5  3  1  0  0  0  0
  6  2  1  0  0  0  0
  7  1  2  0  0  0  0
  8  3  2  0  0  0  0
  9  5  1  0  0  0  0
 10  8  1  0  0  0  0
 11  4  2  0  0  0  0
 12  4  1  0  0  0  0
 13  6  1  0  0  0  0
 14 22  2  0  0  0  0
 15 16  1  0  0  0  0
 16 12  2  0  0  0  0
 17 11  1  0  0  0  0
 18 14  1  0  0  0  0
 19 13  1  0  0  0  0
 20 13  2  0  0  0  0
 21 19  2  0  0  0  0
 22 20  1  0  0  0  0
 23 15  1  0  0  0  0
 24 23  1  0  0  0  0
  9 10  2  0  0  0  0
 15 17  2  0  0  0  0
 14 21  1  0  0  0  0
M  END
> <#>
599

> <PLATE>
LAT008

> <ROW>
G

> <COL>
6

> <COORD>
G06

> <LATID>
LAT008G06

> <Supplier>
Chembridge

> <Suplier_CAT#>
5490737

> <Name>
Novel

> <Sec_Name>
143_G07

> <Concentration_(mM)>
2.5

> <IC50_(µM)>
50

> <Yeast_Active?>
-

> <Pubchem_CID>
2053571

$$$$
