
  -ISIS-  08130814242D

 18 20  0  0  0  0  0  0  0  0999 V2000
    2.1875   -2.0542    0.0000 N   0  0  3  0  0  0  0  0  0  0  0  0
    2.9167   -1.5250    0.0000 N   0  0  0  0  0  0  0  0  0  0  0  0
    2.3542   -1.5250    0.0000 C   0  0  0  0  0  0  0  0  0  0  0  0
    3.0917   -2.0542    0.0000 C   0  0  0  0  0  0  0  0  0  0  0  0
    2.6375   -2.3875    0.0000 C   0  0  0  0  0  0  0  0  0  0  0  0
    1.6417   -2.1667    0.0000 C   0  0  0  0  0  0  0  0  0  0  0  0
    1.9875   -1.1125    0.0000 C   0  0  0  0  0  0  0  0  0  0  0  0
    1.2667   -1.7542    0.0000 C   0  0  0  0  0  0  0  0  0  0  0  0
    1.4417   -1.2250    0.0000 C   0  0  0  0  0  0  0  0  0  0  0  0
    3.6250   -2.2292    0.0000 C   0  0  0  0  0  0  0  0  0  0  0  0
    3.7417   -2.7792    0.0000 C   0  0  0  0  0  0  0  0  0  0  0  0
    4.0417   -1.8542    0.0000 C   0  0  0  0  0  0  0  0  0  0  0  0
    4.5667   -2.0292    0.0000 C   0  0  0  0  0  0  0  0  0  0  0  0
    4.2750   -2.9500    0.0000 C   0  0  0  0  0  0  0  0  0  0  0  0
    4.6917   -2.5750    0.0000 C   0  0  0  0  0  0  0  0  0  0  0  0
    0.5292   -1.9125    0.0000 C   0  0  0  0  0  0  0  0  0  0  0  0
    5.2167   -2.7500    0.0000 C   0  0  0  0  0  0  0  0  0  0  0  0
    5.3375   -3.2917    0.0000 C   0  0  0  0  0  0  0  0  0  0  0  0
  2  3  2  0  0  0  0
  3  1  1  0  0  0  0
  4  5  2  0  0  0  0
  5  1  1  0  0  0  0
  6  1  1  0  0  0  0
  7  3  1  0  0  0  0
  8  6  2  0  0  0  0
  9  8  1  0  0  0  0
 10  4  1  0  0  0  0
 11 10  1  0  0  0  0
 12 10  2  0  0  0  0
 13 12  1  0  0  0  0
 14 11  2  0  0  0  0
 15 13  2  0  0  0  0
 16  8  1  0  0  0  0
 17 15  1  0  0  0  0
 18 17  1  0  0  0  0
  4  2  1  0  0  0  0
  7  9  2  0  0  0  0
 14 15  1  0  0  0  0
M  END
> <#>
924

> <PLATE>
LAT012

> <ROW>
D

> <COL>
7

> <COORD>
D07

> <LATID>
LAT012D07

> <Supplier>
Chembridge

> <Suplier_CAT#>
5691510

> <Name>
Novel

> <Sec_Name>
223_H02

> <Concentration_(mM)>
2.5

> <IC50_(µM)>
47

> <Yeast_Active?>
+

> <Pubchem_CID>
757888

$$$$
