
  -ISIS-  08130814242D

 24 26  0  0  0  0  0  0  0  0999 V2000
    2.2875   -1.1500    0.0000 C   0  0  0  0  0  0  0  0  0  0  0  0
    1.5667   -0.7292    0.0000 C   0  0  0  0  0  0  0  0  0  0  0  0
    3.0042   -0.7375    0.0000 C   0  0  0  0  0  0  0  0  0  0  0  0
    0.8667   -1.9750    0.0000 C   0  0  0  0  0  0  0  0  0  0  0  0
    2.2875   -1.9750    0.0000 O   0  0  0  0  0  0  0  0  0  0  0  0
    0.8667   -1.1500    0.0000 C   0  0  3  0  0  0  0  0  0  0  0  0
    3.7167   -1.1500    0.0000 C   0  0  0  0  0  0  0  0  0  0  0  0
    0.2792   -2.5542    0.0000 O   0  0  0  0  0  0  0  0  0  0  0  0
    1.5667    0.0958    0.0000 O   0  0  0  0  0  0  0  0  0  0  0  0
    3.0042    0.0875    0.0000 C   0  0  0  0  0  0  0  0  0  0  0  0
    0.1500   -0.7375    0.0000 C   0  0  0  0  0  0  0  0  0  0  0  0
    3.7167   -1.9750    0.0000 O   0  0  0  0  0  0  0  0  0  0  0  0
    4.4292   -0.7375    0.0000 O   0  0  0  0  0  0  0  0  0  0  0  0
    3.7250    0.4958    0.0000 C   0  0  0  0  0  0  0  0  0  0  0  0
    2.2917    0.5000    0.0000 C   0  0  0  0  0  0  0  0  0  0  0  0
   -0.5625   -1.1542    0.0000 C   0  0  0  0  0  0  0  0  0  0  0  0
    0.1417    0.0875    0.0000 C   0  0  0  0  0  0  0  0  0  0  0  0
    5.1417   -1.1542    0.0000 C   0  0  0  0  0  0  0  0  0  0  0  0
   -0.5708    0.5000    0.0000 C   0  0  0  0  0  0  0  0  0  0  0  0
   -1.2833   -0.7417    0.0000 C   0  0  0  0  0  0  0  0  0  0  0  0
    2.3000    1.3250    0.0000 C   0  0  0  0  0  0  0  0  0  0  0  0
    3.7292    1.3208    0.0000 C   0  0  0  0  0  0  0  0  0  0  0  0
   -1.2833    0.0875    0.0000 C   0  0  0  0  0  0  0  0  0  0  0  0
    3.0167    1.7375    0.0000 C   0  0  0  0  0  0  0  0  0  0  0  0
  2  1  1  0  0  0  0
  3  1  2  0  0  0  0
  4  5  1  0  0  0  0
  5  1  1  0  0  0  0
  6  2  1  0  0  0  0
  7  3  1  0  0  0  0
  8  4  2  0  0  0  0
  9  2  2  0  0  0  0
 10  3  1  0  0  0  0
 11  6  1  0  0  0  0
 12  7  2  0  0  0  0
 13  7  1  0  0  0  0
 14 10  2  0  0  0  0
 15 10  1  0  0  0  0
 16 11  1  0  0  0  0
 17 11  2  0  0  0  0
 18 13  1  0  0  0  0
 19 17  1  0  0  0  0
 20 16  2  0  0  0  0
 21 15  2  0  0  0  0
 22 14  1  0  0  0  0
 23 19  2  0  0  0  0
 24 21  1  0  0  0  0
  4  6  1  0  0  0  0
 24 22  2  0  0  0  0
 23 20  1  0  0  0  0
M  END
> <#>
38

> <PLATE>
LAT001

> <ROW>
F

> <COL>
6

> <COORD>
F06

> <LATID>
LAT001F06

> <Supplier>
Microsource

> <Suplier_CAT#>
00300146

> <Name>
Vulpinic Acid

> <Concentration_(mM)>
2.5

> <IC50_(µM)>
8.3

> <Yeast_Active?>
-

> <Pubchem_CID>
5678

> <Description>
Antiinflammatory, Antimicrobial

> <Source>
Natural Product; ex widespread in lichens

$$$$
