
  -ISIS-  08130814242D

 32 34  0  0  0  0  0  0  0  0999 V2000
   -0.6958   -2.1750    0.0000 N   0  0  0  0  0  0  0  0  0  0  0  0
    0.1750   -0.6750    0.0000 N   0  0  0  0  0  0  0  0  0  0  0  0
    1.0417   -2.1750    0.0000 C   0  0  0  0  0  0  0  0  0  0  0  0
    1.0417   -1.1750    0.0000 C   0  0  0  0  0  0  0  0  0  0  0  0
    0.1750   -2.6750    0.0000 C   0  0  0  0  0  0  0  0  0  0  0  0
   -0.6958   -1.1750    0.0000 C   0  0  0  0  0  0  0  0  0  0  0  0
    1.9042   -2.6750    0.0000 N   0  0  0  0  0  0  0  0  0  0  0  0
    8.2167   -2.4500    0.0000 C   0  0  0  0  0  0  0  0  0  0  0  0
    1.9042   -0.6750    0.0000 N   0  0  0  0  0  0  0  0  0  0  0  0
    9.0167   -2.6625    0.0000 N   0  0  0  0  0  0  0  0  0  0  0  0
    9.8042   -1.6167    0.0000 C   0  0  0  0  0  0  0  0  0  0  0  0
    9.8125   -2.4417    0.0000 C   0  0  3  0  0  0  0  0  0  0  0  0
    7.4500   -2.4917    0.0000 C   0  0  0  0  0  0  0  0  0  0  0  0
    2.7750   -2.1750    0.0000 C   0  0  0  0  0  0  0  0  0  0  0  0
   12.2000   -2.6542    0.0000 C   0  0  0  0  0  0  0  0  0  0  0  0
    8.2167   -1.4500    0.0000 O   0  0  0  0  0  0  0  0  0  0  0  0
    9.0875   -1.2042    0.0000 O   0  0  0  0  0  0  0  0  0  0  0  0
    4.3875   -2.0417    0.0000 N   0  0  0  0  0  0  0  0  0  0  0  0
   12.7792   -2.0667    0.0000 O   0  0  0  0  0  0  0  0  0  0  0  0
    0.1750   -3.4042    0.0000 N   0  0  0  0  0  0  0  0  0  0  0  0
    2.7750   -1.1750    0.0000 C   0  0  0  0  0  0  0  0  0  0  0  0
   -1.2333   -0.8125    0.0000 N   0  0  0  0  0  0  0  0  0  0  0  0
   10.6042   -2.6542    0.0000 C   0  0  0  0  0  0  0  0  0  0  0  0
    6.9500   -1.6292    0.0000 C   0  0  0  0  0  0  0  0  0  0  0  0
    6.9500   -3.3542    0.0000 C   0  0  0  0  0  0  0  0  0  0  0  0
    3.6125   -2.4917    0.0000 C   0  0  0  0  0  0  0  0  0  0  0  0
    5.4500   -2.4917    0.0000 C   0  0  0  0  0  0  0  0  0  0  0  0
   11.4042   -2.4417    0.0000 C   0  0  0  0  0  0  0  0  0  0  0  0
   10.5167   -1.2000    0.0000 O   0  0  0  0  0  0  0  0  0  0  0  0
   12.4125   -3.4417    0.0000 O   0  0  0  0  0  0  0  0  0  0  0  0
    5.9500   -3.3542    0.0000 C   0  0  0  0  0  0  0  0  0  0  0  0
    5.9500   -1.6292    0.0000 C   0  0  0  0  0  0  0  0  0  0  0  0
  2  6  2  0  0  0  0
  3  5  1  0  0  0  0
  4  2  1  0  0  0  0
  5  1  2  0  0  0  0
  6  1  1  0  0  0  0
  7  3  1  0  0  0  0
  8 13  1  0  0  0  0
  9  4  1  0  0  0  0
 10  8  1  0  0  0  0
 11 12  1  0  0  0  0
 12 10  1  0  0  0  0
 13 24  1  0  0  0  0
 14  7  2  0  0  0  0
 15 28  1  0  0  0  0
 16  8  2  0  0  0  0
 17 11  2  0  0  0  0
 18 26  1  0  0  0  0
 19 15  2  0  0  0  0
 20  5  1  0  0  0  0
 21  9  2  0  0  0  0
 22  6  1  0  0  0  0
 23 12  1  0  0  0  0
 24 32  2  0  0  0  0
 25 31  1  0  0  0  0
 26 14  1  0  0  0  0
 27 18  1  0  0  0  0
 28 23  1  0  0  0  0
 29 11  1  0  0  0  0
 30 15  1  0  0  0  0
 31 27  2  0  0  0  0
 32 27  1  0  0  0  0
  3  4  2  0  0  0  0
 14 21  1  0  0  0  0
 25 13  2  0  0  0  0
M  END
> <#>
194

> <PLATE>
LAT003

> <ROW>
B

> <COL>
6

> <COORD>
B06

> <LATID>
LAT003B06

> <Supplier>
Sigma

> <Suplier_CAT#>
A 1784

> <Name>
Aminopterin

> <Concentration_(mM)>
2.5

> <IC50_(µM)>
0.022

> <Yeast_Active?>
-

> <Pubchem_CID>
2154

> <Description>
Dihydrofolate Reductase Inhibitor

$$$$
