
  -ISIS-  08130814242D

 32 36  0  0  0  0  0  0  0  0999 V2000
    2.2125   -1.9542    0.0000 C   0  0  0  0  0  0  0  0  0  0  0  0
    2.9292   -2.3417    0.0000 C   0  0  0  0  0  0  0  0  0  0  0  0
    3.6417   -1.9542    0.0000 C   0  0  3  0  0  0  0  0  0  0  0  0
    4.3667   -2.3417    0.0000 C   0  0  0  0  0  0  0  0  0  0  0  0
    5.7792   -2.3417    0.0000 C   0  0  0  0  0  0  0  0  0  0  0  0
    5.0750   -1.9542    0.0000 C   0  0  0  0  0  0  0  0  0  0  0  0
    0.0667   -0.7042    0.0000 O   0  0  0  0  0  0  0  0  0  0  0  0
    2.2125   -1.1292    0.0000 C   0  0  0  0  0  0  0  0  0  0  0  0
    0.7750   -1.1292    0.0000 C   0  0  0  0  0  0  0  0  0  0  0  0
    5.7792   -3.1917    0.0000 C   0  0  0  0  0  0  0  0  0  0  0  0
    1.5042   -2.3792    0.0000 C   0  0  0  0  0  0  0  0  0  0  0  0
    0.7917   -1.9542    0.0000 C   0  0  0  0  0  0  0  0  0  0  0  0
   -0.6375   -1.1292    0.0000 C   0  0  3  0  0  0  0  0  0  0  0  0
    6.5042   -3.5875    0.0000 O   0  0  0  0  0  0  0  0  0  0  0  0
    2.9167   -0.7042    0.0000 O   0  0  0  0  0  0  0  0  0  0  0  0
    1.4792   -0.7042    0.0000 C   0  0  0  0  0  0  0  0  0  0  0  0
    3.6417   -1.1000    0.0000 C   0  0  0  0  0  0  0  0  0  0  0  0
    4.3667   -3.1917    0.0000 C   0  0  0  0  0  0  0  0  0  0  0  0
   -0.6375   -1.9542    0.0000 C   0  0  3  0  0  0  0  0  0  0  0  0
    0.0667   -2.3792    0.0000 C   0  0  0  0  0  0  0  0  0  0  0  0
    6.5042   -1.9542    0.0000 C   0  0  0  0  0  0  0  0  0  0  0  0
    7.2167   -3.1917    0.0000 C   0  0  3  0  0  0  0  0  0  0  0  0
    2.9292   -3.1917    0.0000 O   0  0  0  0  0  0  0  0  0  0  0  0
    5.0750   -3.5875    0.0000 C   0  0  0  0  0  0  0  0  0  0  0  0
    7.2167   -2.3417    0.0000 C   0  0  0  0  0  0  0  0  0  0  0  0
    5.0917   -1.0917    0.0000 O   0  0  0  0  0  0  0  0  0  0  0  0
   -1.3708   -2.3792    0.0000 O   0  0  0  0  0  0  0  0  0  0  0  0
   -0.6375   -0.2792    0.0000 C   0  0  0  0  0  0  0  0  0  0  0  0
   -1.3458   -1.5167    0.0000 C   0  0  0  0  0  0  0  0  0  0  0  0
    7.8542   -2.7792    0.0000 C   0  0  0  0  0  0  0  0  0  0  0  0
    7.2292   -4.0250    0.0000 C   0  0  0  0  0  0  0  0  0  0  0  0
    4.3292   -0.7042    0.0000 C   0  0  0  0  0  0  0  0  0  0  0  0
  2  1  1  0  0  0  0
  3  2  1  0  0  0  0
  4  3  1  0  0  0  0
  5  6  1  0  0  0  0
  6  4  2  0  0  0  0
  7  9  1  0  0  0  0
  8  1  2  0  0  0  0
  9 12  1  0  0  0  0
 10 24  1  0  0  0  0
 11  1  1  0  0  0  0
 12 11  2  0  0  0  0
 13 19  1  0  0  0  0
 14 10  1  0  0  0  0
 15  8  1  0  0  0  0
 16  8  1  0  0  0  0
 17 15  1  0  0  0  0
 18  4  1  0  0  0  0
 19 20  1  0  0  0  0
 20 12  1  0  0  0  0
 21  5  1  0  0  0  0
 22 14  1  0  0  0  0
 23  2  2  0  0  0  0
 24 18  2  0  0  0  0
 25 21  1  0  0  0  0
 26  6  1  0  0  0  0
 27 19  1  0  0  0  0
 28 13  1  0  0  0  0
 29 13  1  0  0  0  0
 30 22  1  0  0  0  0
 31 22  1  0  0  0  0
 32 26  1  0  0  0  0
 16  9  2  0  0  0  0
  3 17  1  0  0  0  0
  7 13  1  0  0  0  0
 10  5  2  0  0  0  0
 25 22  1  0  0  0  0
M  END
> <#>
15

> <PLATE>
LAT001

> <ROW>
G

> <COL>
3

> <COORD>
G03

> <LATID>
LAT001G03

> <Supplier>
Microsource

> <Suplier_CAT#>
00210201

> <Name>
Dihydromundulone

> <Concentration_(mM)>
2.5

> <IC50_(µM)>
26

> <Yeast_Active?>
-

> <Pubchem_CID>
3953335

> <Source>
derivative

$$$$
