
  -ISIS-  08130814242D

 29 32  0  0  0  0  0  0  0  0999 V2000
   -1.1889   -2.1291    0.0000 C   0  0  0  0  0  0  0  0  0  0  0  0
   -1.1901   -2.9565    0.0000 C   0  0  0  0  0  0  0  0  0  0  0  0
   -0.4753   -3.3694    0.0000 C   0  0  0  0  0  0  0  0  0  0  0  0
   -0.4771   -1.7164    0.0000 C   0  0  0  0  0  0  0  0  0  0  0  0
    0.2383   -2.1255    0.0000 C   0  0  0  0  0  0  0  0  0  0  0  0
    0.2391   -2.9523    0.0000 C   0  0  0  0  0  0  0  0  0  0  0  0
    0.9544   -3.3633    0.0000 N   0  0  0  0  0  0  0  0  0  0  0  0
    1.6694   -2.9485    0.0000 C   0  0  0  0  0  0  0  0  0  0  0  0
    1.6646   -2.1186    0.0000 C   0  0  0  0  0  0  0  0  0  0  0  0
    0.9487   -1.7113    0.0000 C   0  0  0  0  0  0  0  0  0  0  0  0
    2.3819   -3.3541    0.0000 C   0  0  0  0  0  0  0  0  0  0  0  0
    2.3838   -4.1803    0.0000 C   0  0  0  0  0  0  0  0  0  0  0  0
    3.0990   -4.5899    0.0000 C   0  0  0  0  0  0  0  0  0  0  0  0
    3.8128   -4.1746    0.0000 C   0  0  0  0  0  0  0  0  0  0  0  0
    3.8070   -3.3453    0.0000 C   0  0  0  0  0  0  0  0  0  0  0  0
    3.0912   -2.9394    0.0000 C   0  0  0  0  0  0  0  0  0  0  0  0
    2.3766   -1.7017    0.0000 C   0  0  0  0  0  0  0  0  0  0  0  0
    0.9444   -0.8864    0.0000 C   0  0  0  0  0  0  0  0  0  0  0  0
    1.6566   -0.4701    0.0000 N   0  0  0  0  0  0  0  0  0  0  0  0
    0.2277   -0.4776    0.0000 O   0  0  0  0  0  0  0  0  0  0  0  0
    1.6500    0.3583    0.0000 C   0  0  1  0  0  0  0  0  0  0  0  0
    2.3611    0.7766    0.0000 C   0  0  0  0  0  0  0  0  0  0  0  0
    0.9322    0.7651    0.0000 C   0  0  0  0  0  0  0  0  0  0  0  0
    3.0789    0.3698    0.0000 C   0  0  0  0  0  0  0  0  0  0  0  0
    0.9273    1.5896    0.0000 C   0  0  0  0  0  0  0  0  0  0  0  0
    0.2104    1.9963    0.0000 C   0  0  0  0  0  0  0  0  0  0  0  0
   -0.5017    1.5780    0.0000 C   0  0  0  0  0  0  0  0  0  0  0  0
   -0.4924    0.7488    0.0000 C   0  0  0  0  0  0  0  0  0  0  0  0
    0.2251    0.3458    0.0000 C   0  0  0  0  0  0  0  0  0  0  0  0
  6  7  1  0  0  0  0
 14 15  1  0  0  0  0
  1  2  2  0  0  0  0
 15 16  2  0  0  0  0
 16 11  1  0  0  0  0
  8 11  1  0  0  0  0
  7  8  2  0  0  0  0
  9 17  1  0  0  0  0
  5  4  2  0  0  0  0
 10 18  1  0  0  0  0
  8  9  1  0  0  0  0
 18 19  1  0  0  0  0
  4  1  1  0  0  0  0
 18 20  2  0  0  0  0
  9 10  2  0  0  0  0
 19 21  1  0  0  0  0
 10  5  1  0  0  0  0
 21 22  1  6  0  0  0
 21 23  1  0  0  0  0
  2  3  1  0  0  0  0
 22 24  1  0  0  0  0
 11 12  2  0  0  0  0
 23 25  2  0  0  0  0
  5  6  1  0  0  0  0
 25 26  1  0  0  0  0
 12 13  1  0  0  0  0
 26 27  2  0  0  0  0
  3  6  2  0  0  0  0
 27 28  1  0  0  0  0
 13 14  2  0  0  0  0
 28 29  2  0  0  0  0
 29 23  1  0  0  0  0
M  END
> <#>
276

> <PLATE>
LAT004

> <ROW>
D

> <COL>
6

> <COORD>
D06

> <LATID>
LAT004D06

> <Supplier>
Sigma

> <Suplier_CAT#>
S 5192

> <Name>
SB 222200

> <Concentration_(mM)>
2.5

> <IC50_(µM)>
6.6

> <Yeast_Active?>
-

> <Pubchem_CID>
3946663

> <Description>
Non-peptide NK3 tachykinin receptor antagonist.

$$$$
