
  -ISIS-  08130814242D

 21 23  0  0  0  0  0  0  0  0999 V2000
   -4.1125    1.3000    0.0000 N   0  0  0  0  0  0  0  0  0  0  0  0
   -3.2708    0.9458    0.0000 C   0  0  0  0  0  0  0  0  0  0  0  0
    0.3667   -0.4542    0.0000 C   0  0  0  0  0  0  0  0  0  0  0  0
   -4.7208    0.6208    0.0000 C   0  0  0  0  0  0  0  0  0  0  0  0
   -4.2500   -0.1542    0.0000 S   0  0  0  0  0  0  0  0  0  0  0  0
   -3.3708    0.0625    0.0000 C   0  0  0  0  0  0  0  0  0  0  0  0
   -0.5500   -0.4542    0.0000 N   0  0  0  0  0  0  0  0  0  0  0  0
   -2.3958    1.1458    0.0000 C   0  0  0  0  0  0  0  0  0  0  0  0
   -1.0333    0.3625    0.0000 C   0  0  0  0  0  0  0  0  0  0  0  0
   -1.9333    0.3625    0.0000 C   0  0  0  0  0  0  0  0  0  0  0  0
    0.8292   -1.2375    0.0000 O   0  0  0  0  0  0  0  0  0  0  0  0
    0.8292    0.3208    0.0000 C   0  0  0  0  0  0  0  0  0  0  0  0
   -1.9333    1.9208    0.0000 C   0  0  0  0  0  0  0  0  0  0  0  0
   -5.6125    0.6833    0.0000 C   0  0  0  0  0  0  0  0  0  0  0  0
   -1.0333    1.9208    0.0000 C   0  0  0  0  0  0  0  0  0  0  0  0
   -0.5708    1.1458    0.0000 C   0  0  0  0  0  0  0  0  0  0  0  0
    0.3792    1.1208    0.0000 C   0  0  0  0  0  0  0  0  0  0  0  0
    1.7500    0.3208    0.0000 C   0  0  0  0  0  0  0  0  0  0  0  0
    0.8292    1.9125    0.0000 C   0  0  0  0  0  0  0  0  0  0  0  0
    2.2042    1.1125    0.0000 C   0  0  0  0  0  0  0  0  0  0  0  0
    1.7500    1.9125    0.0000 C   0  0  0  0  0  0  0  0  0  0  0  0
  2  1  1  0  0  0  0
  3  7  1  0  0  0  0
  4  1  2  0  0  0  0
  5  4  1  0  0  0  0
  6  2  2  0  0  0  0
  7  9  1  0  0  0  0
  8  2  1  0  0  0  0
  9 10  2  0  0  0  0
 10  8  1  0  0  0  0
 11  3  2  0  0  0  0
 12  3  1  0  0  0  0
 13  8  2  0  0  0  0
 14  4  1  0  0  0  0
 15 13  1  0  0  0  0
 16 15  2  0  0  0  0
 17 12  1  0  0  0  0
 18 12  2  0  0  0  0
 19 17  2  0  0  0  0
 20 18  1  0  0  0  0
 21 20  2  0  0  0  0
  6  5  1  0  0  0  0
  9 16  1  0  0  0  0
 21 19  1  0  0  0  0
M  END
> <#>
552

> <PLATE>
LAT007

> <ROW>
H

> <COL>
10

> <COORD>
H10

> <LATID>
LAT007H10

> <Supplier>
Chembridge

> <Suplier_CAT#>
5471978

> <Name>
Novel

> <Sec_Name>
135_D09

> <Concentration_(mM)>
2.5

> <IC50_(µM)>
24

> <Yeast_Active?>
-

> <Pubchem_CID>
766934

$$$$
