
  -ISIS-  08130814242D

 24 26  0  0  0  0  0  0  0  0999 V2000
   -0.7208    0.2708    0.0000 C   0  0  3  0  0  0  0  0  0  0  0  0
   -2.3333   -0.7167    0.0000 C   0  0  0  0  0  0  0  0  0  0  0  0
   -1.5000    0.7000    0.0000 C   0  0  3  0  0  0  0  0  0  0  0  0
   -2.3333    0.2708    0.0000 C   0  0  3  0  0  0  0  0  0  0  0  0
   -1.5000   -1.1875    0.0000 C   0  0  0  0  0  0  0  0  0  0  0  0
   -0.7208   -0.7375    0.0000 C   0  0  3  0  0  0  0  0  0  0  0  0
   -0.7333    1.2125    0.0000 C   0  0  0  0  0  0  0  0  0  0  0  0
    1.7375    0.6833    0.0000 C   0  0  0  0  0  0  0  0  0  0  0  0
   -1.5208    1.6708    0.0000 O   0  0  0  0  0  0  0  0  0  0  0  0
    0.1000    0.7208    0.0000 C   0  0  0  0  0  0  0  0  0  0  0  0
    2.5500    0.2125    0.0000 N   0  0  0  0  0  0  0  0  0  0  0  0
   -2.3333    1.2000    0.0000 C   0  0  3  0  0  0  0  0  0  0  0  0
    0.9167    0.2333    0.0000 O   0  0  0  0  0  0  0  0  0  0  0  0
    1.7292    1.6208    0.0000 O   0  0  0  0  0  0  0  0  0  0  0  0
    3.3542    0.6708    0.0000 C   0  0  0  0  0  0  0  0  0  0  0  0
   -3.1458   -1.1375    0.0000 C   0  0  0  0  0  0  0  0  0  0  0  0
   -1.5125   -0.2875    0.0000 C   0  0  0  0  0  0  0  0  0  0  0  0
    0.0875   -1.2000    0.0000 C   0  0  0  0  0  0  0  0  0  0  0  0
   -3.1500    1.6708    0.0000 C   0  0  0  0  0  0  0  0  0  0  0  0
    3.3542    1.6125    0.0000 C   0  0  0  0  0  0  0  0  0  0  0  0
    4.1667    0.2000    0.0000 C   0  0  0  0  0  0  0  0  0  0  0  0
    4.1792    2.0833    0.0000 C   0  0  0  0  0  0  0  0  0  0  0  0
    5.0000    0.6625    0.0000 C   0  0  0  0  0  0  0  0  0  0  0  0
    5.0000    1.6000    0.0000 C   0  0  0  0  0  0  0  0  0  0  0  0
  2  5  2  0  0  0  0
  3  1  1  0  0  0  0
  4  3  1  0  0  0  0
  5  6  1  0  0  0  0
  6  1  1  0  0  0  0
  7  1  1  0  0  0  0
  8 13  1  0  0  0  0
  9  7  1  0  0  0  0
 10  1  1  0  0  0  0
 11  8  1  0  0  0  0
 12  9  1  0  0  0  0
 13 10  1  0  0  0  0
 14  8  2  0  0  0  0
 15 11  1  0  0  0  0
 16  2  1  0  0  0  0
 17  3  1  0  0  0  0
 18  6  1  0  0  0  0
 19 12  1  0  0  0  0
 20 15  2  0  0  0  0
 21 15  1  0  0  0  0
 22 20  1  0  0  0  0
 23 21  2  0  0  0  0
 24 23  1  0  0  0  0
  4  2  1  0  0  0  0
  4 12  1  0  0  0  0
 24 22  2  0  0  0  0
M  END
> <#>
563

> <PLATE>
LAT008

> <ROW>
C

> <COL>
2

> <COORD>
C02

> <LATID>
LAT008C02

> <Supplier>
Chembridge

> <Suplier_CAT#>
5475030

> <Name>
Novel

> <Sec_Name>
138_E02

> <Concentration_(mM)>
2.5

> <IC50_(µM)>
32

> <Yeast_Active?>
-

> <Pubchem_CID>
2847881

$$$$
