
  -ISIS-  08130814242D

 13 13  0  0  0  0  0  0  0  0999 V2000
    5.9522   -3.7381    0.0000 C   0  0  0  0  0  0  0  0  0  0  0  0
    5.3272   -4.8207    0.0000 C   0  0  0  0  0  0  0  0  0  0  0  0
    4.0772   -4.8207    0.0000 C   0  0  0  0  0  0  0  0  0  0  0  0
    3.4522   -3.7381    0.0000 C   0  0  0  0  0  0  0  0  0  0  0  0
    4.0772   -2.6556    0.0000 C   0  0  0  0  0  0  0  0  0  0  0  0
    5.3272   -2.6556    0.0000 C   0  0  0  0  0  0  0  0  0  0  0  0
    9.0772   -2.6556    0.0000 C   0  0  0  0  0  0  0  0  0  0  0  0
    7.8272   -2.6556    0.0000 C   0  0  0  0  0  0  0  0  0  0  0  0
    7.2022   -3.7381    0.0000 C   0  0  3  0  0  0  0  0  0  0  0  0
    9.7022   -1.5731    0.0000 O   0  0  0  0  0  0  0  0  0  0  0  0
    9.7022   -3.7381    0.0000 O   0  0  0  0  0  0  0  0  0  0  0  0
    7.8272   -4.8207    0.0000 O   0  0  0  0  0  0  0  0  0  0  0  0
    9.0772   -4.8207    0.0000 N   0  0  0  0  0  0  0  0  0  0  0  0
  1  2  1  0  0  0  0
  2  3  2  0  0  0  0
  3  4  1  0  0  0  0
  4  5  2  0  0  0  0
  5  6  1  0  0  0  0
  1  6  2  0  0  0  0
  7  8  1  0  0  0  0
  8  9  1  0  0  0  0
  7 10  2  0  0  0  0
  7 11  1  0  0  0  0
  1  9  1  0  0  0  0
 12 13  1  0  0  0  0
  9 12  1  0  0  0  0
M  END
> <#>
374

> <PLATE>
LAT005

> <ROW>
F

> <COL>
8

> <COORD>
F08

> <LATID>
LAT005F08

> <Supplier>
Wako

> <Suplier_CAT#>
010-18931

> <Name>
L-Aminooxyphenylpropanoic Acid 

> <Concentration_(mM)>
10

> <IC50_(µM)>
>400

> <Yeast_Active?>
-

> <Pubchem_CID>
NULL

> <Description>
Phenylalanine Amino Lyase Inhibitor

> <Comment>
Inhibits phenylpropanoid  biosynthesis

> <Source>
Inhibits phenylpropanoid  biosynthesis

$$$$
