
  -ISIS-  08130814242D

 31 35  0  0  0  0  0  0  0  0999 V2000
    7.5417   -4.8000    0.0000 C   0  0  1  0  0  0  0  0  0  0  0  0
    6.7542   -5.0542    0.0000 C   0  0  2  0  0  0  0  0  0  0  0  0
    4.6125   -6.2917    0.0000 C   0  0  1  0  0  0  0  0  0  0  0  0
    6.7542   -5.8792    0.0000 C   0  0  3  0  0  0  0  0  0  0  0  0
    4.6125   -7.1167    0.0000 C   0  0  0  0  0  0  0  0  0  0  0  0
    6.0417   -6.2917    0.0000 C   0  0  3  0  0  0  0  0  0  0  0  0
    5.3250   -5.8792    0.0000 C   0  0  3  0  0  0  0  0  0  0  0  0
    8.0250   -5.4667    0.0000 C   0  0  2  0  0  0  0  0  0  0  0  0
    8.2000   -4.2417    0.0000 O   0  0  0  0  0  0  0  0  0  0  0  0
    6.0375   -4.6417    0.0000 C   0  0  0  0  0  0  0  0  0  0  0  0
    8.9417   -4.5542    0.0000 C   0  0  3  0  0  0  0  0  0  0  0  0
    5.3250   -5.0542    0.0000 C   0  0  2  0  0  0  0  0  0  0  0  0
    8.7917   -5.4625    0.0000 O   0  0  0  0  0  0  0  0  0  0  0  0
    7.5417   -6.1375    0.0000 C   0  0  0  0  0  0  0  0  0  0  0  0
    6.0417   -7.1167    0.0000 C   0  0  0  0  0  0  0  0  0  0  0  0
    5.3250   -7.5292    0.0000 C   0  0  2  0  0  0  0  0  0  0  0  0
    3.9000   -7.5292    0.0000 C   0  0  0  0  0  0  0  0  0  0  0  0
    7.3542   -3.7792    0.0000 C   0  0  0  0  0  0  0  0  0  0  0  0
    3.9000   -5.8792    0.0000 C   0  0  0  0  0  0  0  0  0  0  0  0
    3.1792   -7.1167    0.0000 C   0  0  0  0  0  0  0  0  0  0  0  0
    6.5667   -3.5667    0.0000 O   0  0  0  0  0  0  0  0  0  0  0  0
    2.4625   -7.5292    0.0000 O   0  0  0  0  0  0  0  0  0  0  0  0
    6.7542   -4.2292    0.0000 C   0  0  0  0  0  0  0  0  0  0  0  0
    3.1792   -6.2917    0.0000 C   0  0  0  0  0  0  0  0  0  0  0  0
    4.6125   -5.4667    0.0000 C   0  0  0  0  0  0  0  0  0  0  0  0
    5.3250   -8.3542    0.0000 F   0  0  0  0  0  0  0  0  0  0  0  0
    4.6042   -4.6292    0.0000 O   0  0  0  0  0  0  0  0  0  0  0  0
    7.9417   -3.1917    0.0000 C   0  0  0  0  0  0  0  0  0  0  0  0
    9.3542   -3.8417    0.0000 C   0  0  0  0  0  0  0  0  0  0  0  0
    9.7667   -4.5542    0.0000 C   0  0  0  0  0  0  0  0  0  0  0  0
    7.6417   -2.4292    0.0000 O   0  0  0  0  0  0  0  0  0  0  0  0
  2  1  1  0  0  0  0
  3  7  1  0  0  0  0
  4  2  1  0  0  0  0
  5  3  1  0  0  0  0
  6  4  1  0  0  0  0
  7 12  1  0  0  0  0
  8  1  1  0  0  0  0
  1  9  1  6  0  0  0
 10  2  1  0  0  0  0
 11  9  1  0  0  0  0
 12 10  1  0  0  0  0
  8 13  1  6  0  0  0
 14  8  1  0  0  0  0
 15  6  1  0  0  0  0
 16 15  1  0  0  0  0
 17  5  2  0  0  0  0
  1 18  1  1  0  0  0
 19  3  1  0  0  0  0
 20 24  1  0  0  0  0
 21 18  2  0  0  0  0
 22 20  2  0  0  0  0
  2 23  1  1  0  0  0
 24 19  1  0  0  0  0
  3 25  1  1  0  0  0
 16 26  1  6  0  0  0
 12 27  1  1  0  0  0
 28 18  1  0  0  0  0
 29 11  1  0  0  0  0
 30 11  1  0  0  0  0
 31 28  1  0  0  0  0
 14  4  1  0  0  0  0
 13 11  1  0  0  0  0
  7  6  1  0  0  0  0
 16  5  1  0  0  0  0
 20 17  1  0  0  0  0
M  END
> <#>
154

> <PLATE>
LAT002

> <ROW>
B

> <COL>
11

> <COORD>
B11

> <LATID>
LAT002B11

> <Supplier>
Microsource

> <Suplier_CAT#>
01501175

> <Name>
Flurandrenolide

> <Concentration_(mM)>
2.5

> <IC50_(µM)>
8.6

> <Yeast_Active?>
-

> <Pubchem_CID>
3392

> <Description>
Antiinflammatory

$$$$
