
  -ISIS-  08130814242D

 24 25  0  0  0  0  0  0  0  0999 V2000
    9.8417   -4.4125    0.0000 N   0  5  0  0  0  0  0  0  0  0  0  0
    9.0292   -4.2375    0.0000 C   0  0  0  0  0  0  0  0  0  0  0  0
    8.6167   -4.9500    0.0000 N   0  0  3  0  0  0  0  0  0  0  0  0
    2.4167   -6.3042    0.0000 N   0  3  0  0  0  0  0  0  0  0  0  0
    9.9167   -5.2292    0.0000 C   0  0  0  0  0  0  0  0  0  0  0  0
    5.2792   -4.6542    0.0000 C   0  0  0  0  0  0  0  0  0  0  0  0
    9.1792   -5.5667    0.0000 C   0  0  0  0  0  0  0  0  0  0  0  0
    7.7917   -4.9500    0.0000 N   0  0  0  0  0  0  0  0  0  0  0  0
    6.0667   -4.9125    0.0000 O   0  0  0  0  0  0  0  0  0  0  0  0
    5.2792   -3.8292    0.0000 C   0  0  0  0  0  0  0  0  0  0  0  0
    6.5542   -4.2417    0.0000 C   0  0  0  0  0  0  0  0  0  0  0  0
    7.3792   -4.2375    0.0000 C   0  0  0  0  0  0  0  0  0  0  0  0
    3.1417   -5.8917    0.0000 C   0  0  0  0  0  0  0  0  0  0  0  0
    6.0667   -3.5750    0.0000 C   0  0  0  0  0  0  0  0  0  0  0  0
    1.7042   -5.8917    0.0000 O   0  5  0  0  0  0  0  0  0  0  0  0
    4.5667   -5.0667    0.0000 C   0  0  0  0  0  0  0  0  0  0  0  0
    8.6917   -3.4667    0.0000 O   0  0  0  0  0  0  0  0  0  0  0  0
    2.4167   -7.1292    0.0000 O   0  0  0  0  0  0  0  0  0  0  0  0
   10.6417   -5.6542    0.0000 O   0  0  0  0  0  0  0  0  0  0  0  0
    3.8542   -6.3042    0.0000 C   0  0  0  0  0  0  0  0  0  0  0  0
    3.1417   -5.0667    0.0000 C   0  0  0  0  0  0  0  0  0  0  0  0
    3.8542   -4.6542    0.0000 C   0  0  0  0  0  0  0  0  0  0  0  0
    4.5667   -5.8917    0.0000 C   0  0  0  0  0  0  0  0  0  0  0  0
   11.1042   -4.0875    0.0000 Na  0  3  0  0  0  0  0  0  0  0  0  0
  2  1  1  0  0  0  0
  3  2  1  0  0  0  0
  4 13  1  0  0  0  0
  5  1  1  0  0  0  0
  6  9  1  0  0  0  0
  7  5  1  0  0  0  0
  8  3  1  0  0  0  0
  9 11  1  0  0  0  0
 10 14  1  0  0  0  0
 11 12  1  0  0  0  0
 12  8  2  0  0  0  0
 13 20  1  0  0  0  0
 14 11  2  0  0  0  0
 15  4  1  0  0  0  0
 16  6  1  0  0  0  0
 17  2  2  0  0  0  0
 18  4  2  0  0  0  0
 19  5  2  0  0  0  0
 20 23  2  0  0  0  0
 21 22  1  0  0  0  0
 22 16  2  0  0  0  0
 23 16  1  0  0  0  0
  3  7  1  0  0  0  0
 10  6  2  0  0  0  0
 21 13  2  0  0  0  0
M  CHG  4   1  -1   4   1  15  -1  24   1
M  END
> <#>
176

> <PLATE>
LAT003

> <ROW>
H

> <COL>
3

> <COORD>
H03

> <LATID>
LAT003H03

> <Supplier>
Microsource

> <Suplier_CAT#>
01503209

> <Name>
Dantrolene Sodium

> <Concentration_(mM)>
2.5

> <IC50_(µM)>
>100

> <Yeast_Active?>
-

> <Pubchem_CID>
2952

> <Description>
Muscle Relaxant (Skeletal)

$$$$
