
  -ISIS-  08130814242D

 20 21  0  0  0  0  0  0  0  0999 V2000
   -1.2333    8.5375    0.0000 N   0  0  0  0  0  0  0  0  0  0  0  0
   -3.1500   10.4167    0.0000 C   0  0  0  0  0  0  0  0  0  0  0  0
    1.4167    8.5375    0.0000 C   0  0  0  0  0  0  0  0  0  0  0  0
    2.9167    1.6500    0.0000 C   0  0  0  0  0  0  0  0  0  0  0  0
   -5.7208    9.7292    0.0000 C   0  0  0  0  0  0  0  0  0  0  0  0
    5.4500    1.4208    0.0000 S   0  0  0  0  0  0  0  0  0  0  0  0
    2.7875    6.2000    0.0000 C   0  0  0  0  0  0  0  0  0  0  0  0
    1.5167    3.9333    0.0000 C   0  0  0  0  0  0  0  0  0  0  0  0
   -7.5875   11.6000    0.0000 C   0  0  0  0  0  0  0  0  0  0  0  0
    6.1375   -1.1000    0.0000 C   0  0  0  0  0  0  0  0  0  0  0  0
    1.8792   -0.8042    0.0000 C   0  0  0  0  0  0  0  0  0  0  0  0
    3.8875   -2.5000    0.0000 C   0  0  0  0  0  0  0  0  0  0  0  0
    2.7542   10.8500    0.0000 O   0  0  0  0  0  0  0  0  0  0  0  0
   -2.4208   12.9792    0.0000 C   0  0  0  0  0  0  0  0  0  0  0  0
   -6.8542   14.1167    0.0000 C   0  0  0  0  0  0  0  0  0  0  0  0
   -4.2958   14.8500    0.0000 C   0  0  0  0  0  0  0  0  0  0  0  0
   -6.4375    7.1167    0.0000 O   0  0  0  0  0  0  0  0  0  0  0  0
   -8.7792   16.0000    0.0000 O   0  0  0  0  0  0  0  0  0  0  0  0
   -4.5708    5.2000    0.0000 C   0  0  0  0  0  0  0  0  0  0  0  0
  -11.3375   15.3042    0.0000 C   0  0  0  0  0  0  0  0  0  0  0  0
  2  1  1  0  0  0  0
  3  1  1  0  0  0  0
  4  8  1  0  0  0  0
  5  2  1  0  0  0  0
  6  4  1  0  0  0  0
  7  3  1  0  0  0  0
  8  7  2  0  0  0  0
  9  5  2  0  0  0  0
 10  6  1  0  0  0  0
 11  4  2  0  0  0  0
 12 11  1  0  0  0  0
 13  3  2  0  0  0  0
 14  2  2  0  0  0  0
 15 16  2  0  0  0  0
 16 14  1  0  0  0  0
 17  5  1  0  0  0  0
 18 15  1  0  0  0  0
 19 17  1  0  0  0  0
 20 18  1  0  0  0  0
  9 15  1  0  0  0  0
 10 12  2  0  0  0  0
M  END
> <#>
921

> <PLATE>
LAT012

> <ROW>
A

> <COL>
7

> <COORD>
A07

> <LATID>
LAT012A07

> <Supplier>
Chembridge

> <Suplier_CAT#>
5693420

> <Name>
Novel

> <Sec_Name>
222_A07

> <Concentration_(mM)>
2.5

> <IC50_(µM)>
33

> <Yeast_Active?>
-

> <Pubchem_CID>
868293

$$$$
