
  -ISIS-  08130814242D

 13 13  0  0  0  0  0  0  0  0999 V2000
    5.9000   -3.0917    0.0000 N   0  0  0  0  0  0  0  0  0  0  0  0
    7.6042   -3.1292    0.0000 C   0  0  0  0  0  0  0  0  0  0  0  0
    6.7792   -2.5667    0.0000 C   0  0  0  0  0  0  0  0  0  0  0  0
    8.5042   -2.6917    0.0000 O   0  0  0  0  0  0  0  0  0  0  0  0
    6.7792   -1.5875    0.0000 C   0  0  0  0  0  0  0  0  0  0  0  0
    5.0167   -2.6125    0.0000 C   0  0  0  0  0  0  0  0  0  0  0  0
    7.5292   -4.1250    0.0000 O   0  0  0  0  0  0  0  0  0  0  0  0
    5.9000   -1.0875    0.0000 C   0  0  0  0  0  0  0  0  0  0  0  0
    5.0167   -1.6167    0.0000 C   0  0  0  0  0  0  0  0  0  0  0  0
    4.1875   -1.0667    0.0000 C   0  0  0  0  0  0  0  0  0  0  0  0
    3.3292   -1.5625    0.0000 C   0  0  0  0  0  0  0  0  0  0  0  0
    2.4667   -1.0667    0.0000 C   0  0  0  0  0  0  0  0  0  0  0  0
    1.6125   -1.5625    0.0000 C   0  0  0  0  0  0  0  0  0  0  0  0
  2  3  1  0  0  0  0
  3  1  1  0  0  0  0
  4  2  2  0  0  0  0
  5  3  2  0  0  0  0
  6  1  2  0  0  0  0
  7  2  1  0  0  0  0
  8  9  2  0  0  0  0
  9  6  1  0  0  0  0
 10  9  1  0  0  0  0
 11 10  1  0  0  0  0
 12 11  1  0  0  0  0
 13 12  1  0  0  0  0
  8  5  1  0  0  0  0
M  END
> <#>
231

> <PLATE>
LAT003

> <ROW>
G

> <COL>
10

> <COORD>
G10

> <LATID>
LAT003G10

> <Supplier>
Sigma

> <Suplier_CAT#>
F 6513

> <Name>
Fusaric Acid

> <Concentration_(mM)>
2.5

> <IC50_(µM)>
6

> <Yeast_Active?>
-

> <Pubchem_CID>
3442

> <Description>
Dopamine beta-hydroxylase inhibitor; antibiotic isolated from the fungus Fusarium heterosporium

$$$$
