
  -ISIS-  08130814242D

 24 25  0  0  0  0  0  0  0  0999 V2000
   -0.1708    0.3125    0.0000 C   0  0  0  0  0  0  0  0  0  0  0  0
   -0.9708    0.7833    0.0000 C   0  0  0  0  0  0  0  0  0  0  0  0
   -4.1708    0.8208    0.0000 C   0  0  0  0  0  0  0  0  0  0  0  0
   -1.7625    0.3333    0.0000 C   0  0  0  0  0  0  0  0  0  0  0  0
    0.6292    0.7833    0.0000 N   0  0  0  0  0  0  0  0  0  0  0  0
   -4.1625    1.7625    0.0000 C   0  0  0  0  0  0  0  0  0  0  0  0
   -3.3708    0.3500    0.0000 C   0  0  0  0  0  0  0  0  0  0  0  0
   -0.1708   -0.6042    0.0000 O   0  0  0  0  0  0  0  0  0  0  0  0
   -2.5500    0.8000    0.0000 C   0  0  0  0  0  0  0  0  0  0  0  0
   -3.3500    2.2125    0.0000 C   0  0  0  0  0  0  0  0  0  0  0  0
    1.4375    0.3125    0.0000 C   0  0  3  0  0  0  0  0  0  0  0  0
    2.2375    0.7708    0.0000 C   0  0  0  0  0  0  0  0  0  0  0  0
   -2.5500    1.7333    0.0000 C   0  0  0  0  0  0  0  0  0  0  0  0
   -4.9708    0.3833    0.0000 O   0  0  0  0  0  0  0  0  0  0  0  0
   -4.9708    2.2333    0.0000 O   0  0  0  0  0  0  0  0  0  0  0  0
    3.0375    0.3125    0.0000 C   0  0  0  0  0  0  0  0  0  0  0  0
    1.4375   -0.6042    0.0000 C   0  0  0  0  0  0  0  0  0  0  0  0
   -4.9708   -0.5375    0.0000 C   0  0  0  0  0  0  0  0  0  0  0  0
    3.8375    0.7708    0.0000 C   0  0  0  0  0  0  0  0  0  0  0  0
    3.0292   -0.6292    0.0000 C   0  0  0  0  0  0  0  0  0  0  0  0
   -5.7708    1.7833    0.0000 C   0  0  0  0  0  0  0  0  0  0  0  0
    3.8167   -1.1000    0.0000 C   0  0  0  0  0  0  0  0  0  0  0  0
    4.6375    0.3000    0.0000 C   0  0  0  0  0  0  0  0  0  0  0  0
    4.6292   -0.6375    0.0000 C   0  0  0  0  0  0  0  0  0  0  0  0
  2  1  1  0  0  0  0
  3  7  2  0  0  0  0
  4  2  2  0  0  0  0
  5  1  1  0  0  0  0
  6 10  2  0  0  0  0
  7  9  1  0  0  0  0
  8  1  2  0  0  0  0
  9  4  1  0  0  0  0
 10 13  1  0  0  0  0
 11  5  1  0  0  0  0
 12 11  1  0  0  0  0
 13  9  2  0  0  0  0
 14  3  1  0  0  0  0
 15  6  1  0  0  0  0
 16 12  1  0  0  0  0
 17 11  1  0  0  0  0
 18 14  1  0  0  0  0
 19 16  2  0  0  0  0
 20 16  1  0  0  0  0
 21 15  1  0  0  0  0
 22 20  2  0  0  0  0
 23 19  1  0  0  0  0
 24 22  1  0  0  0  0
  3  6  1  0  0  0  0
 23 24  2  0  0  0  0
M  END
> <#>
658

> <PLATE>
LAT009

> <ROW>
B

> <COL>
4

> <COORD>
B04

> <LATID>
LAT009B04

> <Supplier>
Chembridge

> <Suplier_CAT#>
5527402

> <Name>
Novel

> <Sec_Name>
150_C05

> <Concentration_(mM)>
2.5

> <IC50_(µM)>
26

> <Yeast_Active?>
-

> <Pubchem_CID>
749868

$$$$
