
  -ISIS-  08130814242D

 54 57  0  0  0  0  0  0  0  0999 V2000
    1.0042    0.5125    0.0000 C   0  0  1  0  0  0  0  0  0  0  0  0
    1.0042   -0.0542    0.0000 C   0  0  3  0  0  0  0  0  0  0  0  0
    0.5000   -0.3542    0.0000 C   0  0  0  0  0  0  0  0  0  0  0  0
   -0.5208   -0.3542    0.0000 C   0  0  2  0  0  0  0  0  0  0  0  0
   -0.0125   -0.0542    0.0000 C   0  0  3  0  0  0  0  0  0  0  0  0
    0.5000    0.8125    0.0000 C   0  0  2  0  0  0  0  0  0  0  0  0
    1.5542    0.7000    0.0000 C   0  0  1  0  0  0  0  0  0  0  0  0
   -0.4333   -0.9292    0.0000 C   0  0  3  0  0  0  0  0  0  0  0  0
    1.5542   -0.2500    0.0000 C   0  0  0  0  0  0  0  0  0  0  0  0
   -0.0125    0.5125    0.0000 C   0  0  2  0  0  0  0  0  0  0  0  0
   -0.8333   -1.3500    0.0000 C   0  0  2  0  0  0  0  0  0  0  0  0
   -1.0333   -0.0542    0.0000 C   0  0  2  0  0  0  0  0  0  0  0  0
    0.5000    1.4000    0.0000 O   0  0  0  0  0  0  0  0  0  0  0  0
    0.9875    1.6833    0.0000 C   0  0  0  0  0  0  0  0  0  0  0  0
    1.8875    0.2458    0.0000 C   0  0  0  0  0  0  0  0  0  0  0  0
   -1.4125   -1.3042    0.0000 O   0  0  0  0  0  0  0  0  0  0  0  0
   -1.7458   -0.8500    0.0000 C   0  0  0  0  0  0  0  0  0  0  0  0
   -1.5708   -0.2875    0.0000 C   0  0  0  0  0  0  0  0  0  0  0  0
    2.1792    0.8125    0.0000 C   0  0  0  0  0  0  0  0  0  0  0  0
   -1.0333    0.5125    0.0000 O   0  0  0  0  0  0  0  0  0  0  0  0
    0.1500   -1.1167    0.0000 C   0  0  0  0  0  0  0  0  0  0  0  0
    1.0000    2.2708    0.0000 C   0  0  3  0  0  0  0  0  0  0  0  0
    0.2667   -1.6875    0.0000 C   0  0  0  0  0  0  0  0  0  0  0  0
   -1.5458    0.8125    0.0000 C   0  0  0  0  0  0  0  0  0  0  0  0
    0.5000   -0.9500    0.0000 C   0  0  0  0  0  0  0  0  0  0  0  0
   -1.4833   -2.7542    0.0000 C   0  0  0  0  0  0  0  0  0  0  0  0
    1.7375   -0.8000    0.0000 O   0  0  0  0  0  0  0  0  0  0  0  0
   -1.2333   -1.7792    0.0000 C   0  0  0  0  0  0  0  0  0  0  0  0
    3.1167    0.8125    0.0000 O   0  0  0  0  0  0  0  0  0  0  0  0
    1.4875    1.3500    0.0000 O   0  0  0  0  0  0  0  0  0  0  0  0
    2.6500    1.1500    0.0000 C   0  0  0  0  0  0  0  0  0  0  0  0
    2.3542    0.2458    0.0000 C   0  0  0  0  0  0  0  0  0  0  0  0
    1.0042   -0.6500    0.0000 O   0  0  0  0  0  0  0  0  0  0  0  0
   -0.5208    1.4000    0.0000 C   0  0  0  0  0  0  0  0  0  0  0  0
   -2.3208   -0.9500    0.0000 O   0  0  0  0  0  0  0  0  0  0  0  0
    2.9375    0.2458    0.0000 C   0  0  0  0  0  0  0  0  0  0  0  0
   -0.5208    0.8125    0.0000 O   0  0  0  0  0  0  0  0  0  0  0  0
   -1.0708   -2.3292    0.0000 O   0  0  0  0  0  0  0  0  0  0  0  0
   -1.5208    1.4000    0.0000 O   0  0  0  0  0  0  0  0  0  0  0  0
   -0.1833   -2.1000    0.0000 O   0  0  0  0  0  0  0  0  0  0  0  0
   -2.0500   -2.6042    0.0000 O   0  0  0  0  0  0  0  0  0  0  0  0
   -0.0125    1.6833    0.0000 O   0  0  0  0  0  0  0  0  0  0  0  0
    1.0167    1.1208    0.0000 C   0  0  0  0  0  0  0  0  0  0  0  0
   -0.5000    0.2708    0.0000 C   0  0  0  0  0  0  0  0  0  0  0  0
    0.4792    2.5458    0.0000 C   0  0  3  0  0  0  0  0  0  0  0  0
    1.4875    2.5333    0.0000 O   0  0  0  0  0  0  0  0  0  0  0  0
    0.8375   -1.8875    0.0000 O   0  0  0  0  0  0  0  0  0  0  0  0
   -0.2625   -1.4000    0.0000 C   0  0  0  0  0  0  0  0  0  0  0  0
   -2.0500    0.5333    0.0000 C   0  0  0  0  0  0  0  0  0  0  0  0
   -1.3333   -3.3042    0.0000 C   0  0  0  0  0  0  0  0  0  0  0  0
    0.4792    3.1458    0.0000 C   0  0  0  0  0  0  0  0  0  0  0  0
   -0.0500    2.2500    0.0000 C   0  0  0  0  0  0  0  0  0  0  0  0
    0.9667   -2.4542    0.0000 C   0  0  0  0  0  0  0  0  0  0  0  0
    0.9667    3.4208    0.0000 C   0  0  0  0  0  0  0  0  0  0  0  0
  2  1  1  0  0  0  0
  3  2  1  0  0  0  0
  4  5  1  0  0  0  0
  5 10  1  0  0  0  0
  6  1  1  0  0  0  0
  7  1  1  0  0  0  0
  8  4  1  0  0  0  0
  9  2  1  0  0  0  0
 10  6  1  0  0  0  0
 11  8  1  0  0  0  0
 12  4  1  0  0  0  0
  6 13  1  6  0  0  0
 14 13  1  0  0  0  0
 15  7  1  0  0  0  0
 16 11  1  0  0  0  0
 17 18  1  0  0  0  0
 18 12  1  0  0  0  0
  7 19  1  6  0  0  0
 12 20  1  6  0  0  0
 21  8  1  0  0  0  0
 22 14  1  0  0  0  0
 23 21  1  0  0  0  0
 24 20  1  0  0  0  0
 25  3  2  0  0  0  0
 26 38  1  0  0  0  0
 27  9  2  0  0  0  0
 28 11  1  0  0  0  0
 29 31  1  0  0  0  0
 30 14  2  0  0  0  0
 31 19  2  0  0  0  0
 32 19  1  0  0  0  0
 33  2  1  0  0  0  0
 34 37  1  0  0  0  0
 35 17  2  0  0  0  0
 36 32  2  0  0  0  0
 10 37  1  1  0  0  0
 38 28  1  0  0  0  0
 39 24  2  0  0  0  0
 40 23  2  0  0  0  0
 41 26  2  0  0  0  0
 42 34  2  0  0  0  0
  1 43  1  6  0  0  0
  4 44  1  1  0  0  0
 45 22  1  0  0  0  0
 46 22  1  0  0  0  0
 47 23  1  0  0  0  0
 11 48  1  6  0  0  0
 49 24  1  0  0  0  0
 50 26  1  0  0  0  0
 51 45  1  0  0  0  0
 52 45  1  0  0  0  0
 53 47  1  0  0  0  0
 54 51  1  0  0  0  0
 15  9  1  0  0  0  0
  5  3  1  0  0  0  0
 29 36  1  0  0  0  0
 17 16  1  0  0  0  0
M  END
> <#>
2

> <PLATE>
LAT001

> <ROW>
B

> <COL>
2

> <COORD>
B02

> <LATID>
LAT001B02

> <Supplier>
Microsource

> <Suplier_CAT#>
00100068

> <Name>
Prieurianin

> <Concentration_(mM)>
2.5

> <IC50_(µM)>
0.95

> <Yeast_Active?>
-

> <Pubchem_CID>
73600

> <Source>
Natural Product; ex several 'Meliaceae' genera

$$$$
