
  -ISIS-  08130814242D

 34 36  0  0  0  0  0  0  0  0999 V2000
    6.0271    0.7811    0.0000 O   0  0  0  0  0  0  0  0  0  0  0  0
    5.4021   -0.3014    0.0000 C   0  0  2  0  0  0  0  0  0  0  0  0
    6.0271   -1.3840    0.0000 C   0  0  1  0  0  0  0  0  0  0  0  0
    7.2771   -1.3840    0.0000 O   0  0  0  0  0  0  0  0  0  0  0  0
    5.4021   -2.4665    0.0000 C   0  0  2  0  0  0  0  0  0  0  0  0
    6.0271   -3.5490    0.0000 O   0  0  0  0  0  0  0  0  0  0  0  0
    4.1521   -2.4665    0.0000 C   0  0  1  0  0  0  0  0  0  0  0  0
    3.5271   -3.5490    0.0000 C   0  0  0  0  0  0  0  0  0  0  0  0
    4.1521   -4.6316    0.0000 O   0  0  0  0  0  0  0  0  0  0  0  0
    3.5271   -1.3840    0.0000 O   0  0  0  0  0  0  0  0  0  0  0  0
    4.1521   -0.3014    0.0000 C   0  0  2  0  0  0  0  0  0  0  0  0
    3.5271    0.7811    0.0000 O   0  0  0  0  0  0  0  0  0  0  0  0
    2.2771    0.7811    0.0000 C   0  0  2  0  0  0  0  0  0  0  0  0
    1.6521   -0.3014    0.0000 C   0  0  1  0  0  0  0  0  0  0  0  0
    2.2771   -1.3840    0.0000 C   0  0  0  0  0  0  0  0  0  0  0  0
    1.7437   -2.4998    0.0000 O   0  0  0  0  0  0  0  0  0  0  0  0
    0.4021   -0.3014    0.0000 O   0  0  0  0  0  0  0  0  0  0  0  0
   -0.2229    0.7811    0.0000 C   0  0  2  0  0  0  0  0  0  0  0  0
   -1.4729    0.7811    0.0000 O   0  0  0  0  0  0  0  0  0  0  0  0
   -2.0979   -0.3014    0.0000 C   0  0  2  0  0  0  0  0  0  0  0  0
   -1.4729   -1.3840    0.0000 C   0  0  1  0  0  0  0  0  0  0  0  0
   -0.2229   -1.3840    0.0000 C   0  0  0  0  0  0  0  0  0  0  0  0
    0.6521   -1.3457    0.0000 O   0  0  0  0  0  0  0  0  0  0  0  0
   -2.0979   -2.4665    0.0000 O   0  0  0  0  0  0  0  0  0  0  0  0
   -3.3479   -2.4665    0.0000 C   0  0  3  0  0  0  0  0  0  0  0  0
   -3.9729   -3.5490    0.0000 O   0  0  0  0  0  0  0  0  0  0  0  0
   -3.9729   -1.3840    0.0000 C   0  0  2  0  0  0  0  0  0  0  0  0
   -5.2229   -1.3840    0.0000 O   0  0  0  0  0  0  0  0  0  0  0  0
   -3.3479   -0.3014    0.0000 C   0  0  1  0  0  0  0  0  0  0  0  0
   -3.9729    0.7811    0.0000 O   0  0  0  0  0  0  0  0  0  0  0  0
    0.4021    1.8636    0.0000 C   0  0  2  0  0  0  0  0  0  0  0  0
   -0.2229    2.9462    0.0000 O   0  0  0  0  0  0  0  0  0  0  0  0
    1.6521    1.8636    0.0000 C   0  0  1  0  0  0  0  0  0  0  0  0
    2.2771    2.9462    0.0000 O   0  0  0  0  0  0  0  0  0  0  0  0
  2  1  1  6  0  0  0
  2  3  1  0  0  0  0
  3  4  1  1  0  0  0
  3  5  1  0  0  0  0
  5  6  1  6  0  0  0
  5  7  1  0  0  0  0
  7  8  1  1  0  0  0
  8  9  1  0  0  0  0
  7 10  1  0  0  0  0
 10 11  1  0  0  0  0
  2 11  1  0  0  0  0
 11 12  1  6  0  0  0
 13 12  1  6  0  0  0
 13 14  1  0  0  0  0
 14 15  1  1  0  0  0
 15 16  1  0  0  0  0
 14 17  1  0  0  0  0
 17 18  1  0  0  0  0
 18 19  1  6  0  0  0
 20 19  1  6  0  0  0
 20 21  1  0  0  0  0
 21 22  1  1  0  0  0
 22 23  1  0  0  0  0
 21 24  1  0  0  0  0
 24 25  1  0  0  0  0
 25 26  1  0  0  0  0
 25 27  1  0  0  0  0
 27 28  1  6  0  0  0
 27 29  1  0  0  0  0
 20 29  1  0  0  0  0
 29 30  1  1  0  0  0
 18 31  1  0  0  0  0
 31 32  1  6  0  0  0
 31 33  1  0  0  0  0
 13 33  1  0  0  0  0
 33 34  1  1  0  0  0
M  END
> <#>
419

> <PLATE>
LAT006

> <ROW>
C

> <COL>
4

> <COORD>
C04

> <LATID>
LAT006C04

> <Supplier>
Sigma

> <Suplier_CAT#>
M-8378

> <Name>
Maltotriose

> <Concentration_(mM)>
2.5

> <IC50_(µM)>
inactive

> <Yeast_Active?>
-

> <Pubchem_CID>
871

$$$$
