
  -ISIS-  08130814242D

 21 23  0  0  0  0  0  0  0  0999 V2000
    3.0500    0.4625    0.0000 C   0  0  0  0  0  0  0  0  0  0  0  0
    3.9375    0.5458    0.0000 N   0  0  0  0  0  0  0  0  0  0  0  0
    2.6500    1.2708    0.0000 C   0  0  0  0  0  0  0  0  0  0  0  0
    2.6000   -0.3375    0.0000 C   0  0  0  0  0  0  0  0  0  0  0  0
    4.1500    1.4625    0.0000 C   0  0  0  0  0  0  0  0  0  0  0  0
    3.3500    1.9208    0.0000 C   0  0  0  0  0  0  0  0  0  0  0  0
    1.6792   -0.3500    0.0000 C   0  0  0  0  0  0  0  0  0  0  0  0
    0.2875    0.4333    0.0000 N   0  0  0  0  0  0  0  0  0  0  0  0
    1.2042    0.4458    0.0000 N   0  0  0  0  0  0  0  0  0  0  0  0
    1.2292   -1.1500    0.0000 O   0  0  0  0  0  0  0  0  0  0  0  0
   -2.5125   -1.1792    0.0000 C   0  0  0  0  0  0  0  0  0  0  0  0
   -2.9833   -0.3667    0.0000 C   0  0  0  0  0  0  0  0  0  0  0  0
   -0.1708   -0.3667    0.0000 C   0  0  0  0  0  0  0  0  0  0  0  0
   -1.1000   -0.3667    0.0000 C   0  0  3  0  0  0  0  0  0  0  0  0
    4.9500    1.9583    0.0000 C   0  0  0  0  0  0  0  0  0  0  0  0
    3.3292    2.8500    0.0000 C   0  0  0  0  0  0  0  0  0  0  0  0
   -1.5708   -1.1792    0.0000 C   0  0  0  0  0  0  0  0  0  0  0  0
   -2.5125    0.4458    0.0000 C   0  0  0  0  0  0  0  0  0  0  0  0
   -1.5708    0.4458    0.0000 C   0  0  0  0  0  0  0  0  0  0  0  0
    4.1167    3.3208    0.0000 C   0  0  0  0  0  0  0  0  0  0  0  0
    4.9500    2.8625    0.0000 C   0  0  0  0  0  0  0  0  0  0  0  0
  2  1  1  0  0  0  0
  3  1  2  0  0  0  0
  4  1  1  0  0  0  0
  5  2  1  0  0  0  0
  6  3  1  0  0  0  0
  7  4  1  0  0  0  0
  8  9  1  0  0  0  0
  9  7  1  0  0  0  0
 10  7  2  0  0  0  0
 11 17  1  0  0  0  0
 12 18  1  0  0  0  0
 13  8  2  0  0  0  0
 14 13  1  0  0  0  0
 15  5  1  0  0  0  0
 16  6  1  0  0  0  0
 17 14  1  0  0  0  0
 18 19  1  0  0  0  0
 19 14  1  0  0  0  0
 20 16  2  0  0  0  0
 21 15  2  0  0  0  0
  5  6  2  0  0  0  0
 21 20  1  0  0  0  0
 12 11  2  0  0  0  0
M  END
> <#>
553

> <PLATE>
LAT007

> <ROW>
A

> <COL>
11

> <COORD>
A11

> <LATID>
LAT007A11

> <Supplier>
Chembridge

> <Suplier_CAT#>
5472016

> <Name>
Novel

> <Sec_Name>
135_H09

> <Concentration_(mM)>
2.5

> <IC50_(µM)>
100

> <Yeast_Active?>
-

> <Pubchem_CID>
NULL

$$$$
