
  -ISIS-  08130814242D

 34 37  0  0  0  0  0  0  0  0999 V2000
    0.9000    1.0333    0.0000 C   0  0  0  0  0  0  0  0  0  0  0  0
   -0.1000    1.6208    0.0000 C   0  0  0  0  0  0  0  0  0  0  0  0
   -0.4458    1.0333    0.0000 C   0  0  0  0  0  0  0  0  0  0  0  0
    0.5667    0.4458    0.0000 C   0  0  0  0  0  0  0  0  0  0  0  0
    0.5667    1.6208    0.0000 C   0  0  3  0  0  0  0  0  0  0  0  0
   -0.1000    0.4458    0.0000 N   0  0  0  0  0  0  0  0  0  0  0  0
   -0.4458    2.1958    0.0000 C   0  0  0  0  0  0  0  0  0  0  0  0
    1.5792    1.0333    0.0000 C   0  0  0  0  0  0  0  0  0  0  0  0
   -1.1000    1.0333    0.0000 C   0  0  0  0  0  0  0  0  0  0  0  0
   -1.4500    1.6208    0.0000 C   0  0  3  0  0  0  0  0  0  0  0  0
   -1.1000    2.1958    0.0000 C   0  0  0  0  0  0  0  0  0  0  0  0
    1.1542    2.6333    0.0000 C   0  0  0  0  0  0  0  0  0  0  0  0
   -2.1208    1.6208    0.0000 C   0  0  0  0  0  0  0  0  0  0  0  0
   -0.1208    2.7708    0.0000 O   0  0  0  0  0  0  0  0  0  0  0  0
    1.9042    1.6208    0.0000 O   0  0  0  0  0  0  0  0  0  0  0  0
    1.8375    2.6333    0.0000 C   0  0  0  0  0  0  0  0  0  0  0  0
    0.8375    3.2208    0.0000 C   0  0  0  0  0  0  0  0  0  0  0  0
   -2.4625    1.0333    0.0000 C   0  0  0  0  0  0  0  0  0  0  0  0
   -2.4625    2.1958    0.0000 C   0  0  0  0  0  0  0  0  0  0  0  0
    1.9042    0.4125    0.0000 O   0  0  0  0  0  0  0  0  0  0  0  0
    0.9167   -0.1375    0.0000 C   0  0  0  0  0  0  0  0  0  0  0  0
   -3.4708    1.6208    0.0000 C   0  0  0  0  0  0  0  0  0  0  0  0
   -3.1333    2.1958    0.0000 C   0  0  0  0  0  0  0  0  0  0  0  0
   -3.1333    1.0333    0.0000 C   0  0  0  0  0  0  0  0  0  0  0  0
    2.1542    3.2208    0.0000 C   0  0  0  0  0  0  0  0  0  0  0  0
    1.1542    3.7833    0.0000 C   0  0  0  0  0  0  0  0  0  0  0  0
    1.8375    3.7833    0.0000 C   0  0  0  0  0  0  0  0  0  0  0  0
   -4.1333    1.6208    0.0000 O   0  0  0  0  0  0  0  0  0  0  0  0
    3.5792   -0.1792    0.0000 O   0  0  0  0  0  0  0  0  0  0  0  0
    2.5792    0.4125    0.0000 C   0  0  0  0  0  0  0  0  0  0  0  0
    2.9042   -0.1792    0.0000 C   0  0  0  0  0  0  0  0  0  0  0  0
    2.2042    4.3417    0.0000 C   0  0  0  0  0  0  0  0  0  0  0  0
   -4.4833    1.0333    0.0000 C   0  0  0  0  0  0  0  0  0  0  0  0
    3.9167   -0.7542    0.0000 C   0  0  0  0  0  0  0  0  0  0  0  0
  2  5  1  0  0  0  0
  3  2  2  0  0  0  0
  4  1  2  0  0  0  0
  5  1  1  0  0  0  0
  6  4  1  0  0  0  0
  7  2  1  0  0  0  0
  8  1  1  0  0  0  0
  9  3  1  0  0  0  0
 10 11  1  0  0  0  0
 11  7  1  0  0  0  0
 12  5  1  0  0  0  0
 13 10  1  0  0  0  0
 14  7  2  0  0  0  0
 15  8  2  0  0  0  0
 16 12  2  0  0  0  0
 17 12  1  0  0  0  0
 18 13  1  0  0  0  0
 19 13  2  0  0  0  0
 20  8  1  0  0  0  0
 21  4  1  0  0  0  0
 22 23  2  0  0  0  0
 23 19  1  0  0  0  0
 24 18  2  0  0  0  0
 25 16  1  0  0  0  0
 26 17  2  0  0  0  0
 27 26  1  0  0  0  0
 28 22  1  0  0  0  0
 29 31  1  0  0  0  0
 30 20  1  0  0  0  0
 31 30  1  0  0  0  0
 32 27  1  0  0  0  0
 33 28  1  0  0  0  0
 34 29  1  0  0  0  0
  6  3  1  0  0  0  0
 25 27  2  0  0  0  0
 10  9  1  0  0  0  0
 24 22  1  0  0  0  0
M  END
> <#>
988

> <PLATE>
LAT013

> <ROW>
D

> <COL>
5

> <COORD>
D05

> <LATID>
LAT013D05

> <Supplier>
Chembridge

> <Suplier_CAT#>
5722204

> <Name>
Novel

> <Sec_Name>
228_G05

> <Concentration_(mM)>
2.5

> <IC50_(µM)>
22

> <Yeast_Active?>
-

> <Pubchem_CID>
NULL

$$$$
