
  -ISIS-  08130814242D

 24 24  0  0  0  0  0  0  0  0999 V2000
   -2.3722    2.2027    0.0000 C   0  0  0  0  0  0  0  0  0  0  0  0
   -2.8141    2.9779    0.0000 C   0  0  0  0  0  0  0  0  0  0  0  0
   -3.7064    2.9827    0.0000 C   0  0  0  0  0  0  0  0  0  0  0  0
   -4.1568    2.2124    0.0000 C   0  0  0  0  0  0  0  0  0  0  0  0
   -3.7148    1.4372    0.0000 C   0  0  0  0  0  0  0  0  0  0  0  0
   -4.1652    0.6669    0.0000 C   0  0  0  0  0  0  0  0  0  0  0  0
   -3.7233   -0.1083    0.0000 C   0  0  0  0  0  0  0  0  0  0  0  0
   -2.8309   -0.1132    0.0000 C   0  0  0  0  0  0  0  0  0  0  0  0
   -2.3806    0.6572    0.0000 C   0  0  0  0  0  0  0  0  0  0  0  0
   -2.8225    1.4324    0.0000 C   0  0  0  0  0  0  0  0  0  0  0  0
   -1.4799    2.1978    0.0000 S   0  0  3  0  0  0  0  0  0  0  0  0
   -1.4847    1.3055    0.0000 O   0  0  0  0  0  0  0  0  0  0  0  0
   -1.4750    3.0902    0.0000 O   0  0  0  0  0  0  0  0  0  0  0  0
   -0.5876    2.1930    0.0000 N   0  0  0  0  0  0  0  0  0  0  0  0
   -5.0575    0.6718    0.0000 Cl  0  0  0  0  0  0  0  0  0  0  0  0
   -0.1456    1.4178    0.0000 C   0  0  0  0  0  0  0  0  0  0  0  0
    0.7467    1.4129    0.0000 C   0  0  0  0  0  0  0  0  0  0  0  0
    1.1886    0.6378    0.0000 C   0  0  0  0  0  0  0  0  0  0  0  0
    2.0809    0.6329    0.0000 C   0  0  0  0  0  0  0  0  0  0  0  0
    2.5229   -0.1423    0.0000 C   0  0  0  0  0  0  0  0  0  0  0  0
    3.4152   -0.1472    0.0000 C   0  0  0  0  0  0  0  0  0  0  0  0
    3.8571   -0.9223    0.0000 N   0  0  0  0  0  0  0  0  0  0  0  0
   -0.7144    0.8552    0.0000 H   0  0  0  0  0  0  0  0  0  0  0  0
   -0.7193   -0.0371    0.0000 Cl  0  0  0  0  0  0  0  0  0  0  0  0
  1  2  1  0  0  0  0
  2  3  2  0  0  0  0
  3  4  1  0  0  0  0
  4  5  2  0  0  0  0
  5  6  1  0  0  0  0
  6  7  2  0  0  0  0
  7  8  1  0  0  0  0
  8  9  2  0  0  0  0
  9 10  1  0  0  0  0
  1 10  2  0  0  0  0
  5 10  1  0  0  0  0
 11 12  2  0  0  0  0
 11 13  2  0  0  0  0
 11 14  1  0  0  0  0
  1 11  1  0  0  0  0
  6 15  1  0  0  0  0
 16 17  1  0  0  0  0
 17 18  1  0  0  0  0
 18 19  1  0  0  0  0
 19 20  1  0  0  0  0
 20 21  1  0  0  0  0
 21 22  1  0  0  0  0
 14 16  1  0  0  0  0
 23 24  1  0  0  0  0
M  END
> <#>
476

> <PLATE>
LAT006

> <ROW>
D

> <COL>
11

> <COORD>
D11

> <LATID>
LAT006D11

> <Supplier>
Sigma

> <Suplier_CAT#>
A-3281

> <Name>
N-(6-Aminohexyl)-5-Chloro-1-Naphthalenesulfonamide Hcl

> <Concentration_(mM)>
2.5

> <IC50_(µM)>
>100

> <Yeast_Active?>
-

> <Pubchem_CID>
5681

$$$$
