
  -ISIS-  08130814242D

 31 35  0  0  0  0  0  0  0  0999 V2000
    7.0917   -1.6167    0.0000 C   0  0  1  0  0  0  0  0  0  0  0  0
    6.3125   -1.8750    0.0000 C   0  0  3  0  0  0  0  0  0  0  0  0
    4.1667   -3.1167    0.0000 C   0  0  3  0  0  0  0  0  0  0  0  0
    4.1667   -3.9417    0.0000 C   0  0  0  0  0  0  0  0  0  0  0  0
    6.3125   -2.7042    0.0000 C   0  0  3  0  0  0  0  0  0  0  0  0
    5.5917   -3.1167    0.0000 C   0  0  3  0  0  0  0  0  0  0  0  0
    4.8792   -2.7042    0.0000 C   0  0  3  0  0  0  0  0  0  0  0  0
    7.5792   -2.2875    0.0000 C   0  0  2  0  0  0  0  0  0  0  0  0
    7.5792   -0.9542    0.0000 O   0  0  0  0  0  0  0  0  0  0  0  0
    3.4542   -2.7042    0.0000 C   0  0  0  0  0  0  0  0  0  0  0  0
    5.5917   -1.4625    0.0000 C   0  0  0  0  0  0  0  0  0  0  0  0
    8.3667   -1.2167    0.0000 C   0  0  3  0  0  0  0  0  0  0  0  0
    4.8792   -1.8750    0.0000 C   0  0  3  0  0  0  0  0  0  0  0  0
    8.3667   -2.0292    0.0000 O   0  0  0  0  0  0  0  0  0  0  0  0
    7.0917   -2.9542    0.0000 C   0  0  0  0  0  0  0  0  0  0  0  0
    5.5917   -3.9417    0.0000 C   0  0  0  0  0  0  0  0  0  0  0  0
    4.8792   -4.3542    0.0000 C   0  0  2  0  0  0  0  0  0  0  0  0
    3.4542   -4.3542    0.0000 C   0  0  0  0  0  0  0  0  0  0  0  0
    6.7625   -0.8625    0.0000 C   0  0  0  0  0  0  0  0  0  0  0  0
    2.7375   -3.1167    0.0000 C   0  0  0  0  0  0  0  0  0  0  0  0
    2.7375   -3.9417    0.0000 C   0  0  0  0  0  0  0  0  0  0  0  0
    7.2500   -0.1917    0.0000 O   0  0  0  0  0  0  0  0  0  0  0  0
    2.0167   -4.3625    0.0000 O   0  0  0  0  0  0  0  0  0  0  0  0
    6.3042   -1.0500    0.0000 C   0  0  0  0  0  0  0  0  0  0  0  0
    4.1667   -2.2875    0.0000 C   0  0  0  0  0  0  0  0  0  0  0  0
    4.8792   -5.1792    0.0000 F   0  0  0  0  0  0  0  0  0  0  0  0
    4.1542   -1.4500    0.0000 O   0  0  0  0  0  0  0  0  0  0  0  0
    5.9375   -0.7667    0.0000 C   0  0  0  0  0  0  0  0  0  0  0  0
    9.1792   -1.3542    0.0000 C   0  0  0  0  0  0  0  0  0  0  0  0
    8.8542   -0.5500    0.0000 C   0  0  0  0  0  0  0  0  0  0  0  0
    5.6125   -0.0917    0.0000 O   0  0  0  0  0  0  0  0  0  0  0  0
  2  1  1  0  0  0  0
  3  7  1  0  0  0  0
  4  3  1  0  0  0  0
  5  2  1  0  0  0  0
  6  5  1  0  0  0  0
  7 13  1  0  0  0  0
  8  1  1  0  0  0  0
  1  9  1  6  0  0  0
 10  3  1  0  0  0  0
 11  2  1  0  0  0  0
 12  9  1  0  0  0  0
 13 11  1  0  0  0  0
  8 14  1  6  0  0  0
 15  8  1  0  0  0  0
 16  6  1  0  0  0  0
 17 16  1  0  0  0  0
 18  4  2  0  0  0  0
 19  1  1  0  0  0  0
 20 10  2  0  0  0  0
 21 20  1  0  0  0  0
 22 19  2  0  0  0  0
 23 21  2  0  0  0  0
 24  2  1  0  0  0  0
 25  3  1  0  0  0  0
 17 26  1  6  0  0  0
 27 13  1  0  0  0  0
 28 19  1  0  0  0  0
 29 12  1  0  0  0  0
 30 12  1  0  0  0  0
 31 28  1  0  0  0  0
  5 15  1  0  0  0  0
 14 12  1  0  0  0  0
  6  7  1  0  0  0  0
  4 17  1  0  0  0  0
 18 21  1  0  0  0  0
M  END
> <#>
92

> <PLATE>
LAT002

> <ROW>
D

> <COL>
3

> <COORD>
D03

> <LATID>
LAT002D03

> <Supplier>
Microsource

> <Suplier_CAT#>
01501187

> <Name>
Flunisolide

> <Concentration_(mM)>
2.5

> <IC50_(µM)>
7.6

> <Yeast_Active?>
-

> <Pubchem_CID>
3379

> <Description>
Antiinflammatory

$$$$
