
  -ISIS-  08130814242D

 13 14  0  0  0  0  0  0  0  0999 V2000
    4.3042   -3.1167    0.0000 C   0  0  0  0  0  0  0  0  0  0  0  0
    4.3042   -3.9417    0.0000 C   0  0  0  0  0  0  0  0  0  0  0  0
    5.7282   -3.9417    0.0000 C   0  0  3  0  0  0  0  0  0  0  0  0
    5.7282   -3.1167    0.0000 C   0  0  3  0  0  0  0  0  0  0  0  0
    5.0162   -2.7000    0.0000 C   0  0  3  0  0  0  0  0  0  0  0  0
    4.7958   -3.4958    0.0000 O   0  0  0  0  0  0  0  0  0  0  0  0
    5.0083   -4.2917    0.0000 C   0  0  3  0  0  0  0  0  0  0  0  0
    6.4439   -2.7063    0.0000 C   0  0  0  0  0  0  0  0  0  0  0  0
    6.4276   -4.3793    0.0000 C   0  0  0  0  0  0  0  0  0  0  0  0
    7.1542   -3.1185    0.0000 O   0  0  0  0  0  0  0  0  0  0  0  0
    6.4433   -1.8790    0.0000 O   0  0  0  0  0  0  0  0  0  0  0  0
    6.3968   -5.2007    0.0000 O   0  0  0  0  0  0  0  0  0  0  0  0
    7.1548   -3.9894    0.0000 O   0  0  0  0  0  0  0  0  0  0  0  0
  5  6  1  0  0  0  0
  6  7  1  0  0  0  0
  1  5  1  0  0  0  0
  4  8  1  0  0  0  0
  2  7  1  0  0  0  0
  3  9  1  0  0  0  0
  7  3  1  0  0  0  0
  3  4  1  0  0  0  0
  8 10  1  0  0  0  0
  8 11  2  0  0  0  0
  4  5  1  0  0  0  0
  1  2  1  0  0  0  0
  9 12  1  0  0  0  0
  9 13  2  0  0  0  0
M  END
> <#>
228

> <PLATE>
LAT003

> <ROW>
D

> <COL>
10

> <COORD>
D10

> <LATID>
LAT003D10

> <Supplier>
Sigma

> <Suplier_CAT#>
E 7649

> <Name>
Endothall

> <Concentration_(mM)>
2.5

> <IC50_(µM)>
7

> <Yeast_Active?>
-

> <Pubchem_CID>
3225

> <Description>
Potent inhibitor of phosphatase 2A (PP2A)

$$$$
