
  -ISIS-  08130814242D

 27 29  0  0  0  0  0  0  0  0999 V2000
   -3.2333    0.1958    0.0000 C   0  0  0  0  0  0  0  0  0  0  0  0
   -1.2833   -0.1792    0.0000 C   0  0  0  0  0  0  0  0  0  0  0  0
   -3.2333    0.9500    0.0000 N   0  0  0  0  0  0  0  0  0  0  0  0
   -3.8958   -0.1667    0.0000 N   0  0  0  0  0  0  0  0  0  0  0  0
   -2.5833   -0.1792    0.0000 S   0  0  0  0  0  0  0  0  0  0  0  0
    0.0167   -0.1792    0.0000 N   0  0  0  0  0  0  0  0  0  0  0  0
   -1.9333    0.1958    0.0000 C   0  0  3  0  0  0  0  0  0  0  0  0
    4.9875   -0.1792    0.0000 S   0  0  0  0  0  0  0  0  0  0  0  0
   -0.6208    0.1958    0.0000 N   0  0  0  0  0  0  0  0  0  0  0  0
   -3.8958    1.3208    0.0000 C   0  0  0  0  0  0  0  0  0  0  0  0
   -4.5458    0.1958    0.0000 C   0  0  0  0  0  0  0  0  0  0  0  0
   -1.2833   -0.9292    0.0000 O   0  0  0  0  0  0  0  0  0  0  0  0
   -4.5458    0.9500    0.0000 C   0  0  0  0  0  0  0  0  0  0  0  0
    3.4500   -1.4167    0.0000 O   0  0  0  0  0  0  0  0  0  0  0  0
    0.6667    0.1833    0.0000 C   0  0  0  0  0  0  0  0  0  0  0  0
    4.1542   -1.0042    0.0000 C   0  0  3  0  0  0  0  0  0  0  0  0
    2.7292   -1.0000    0.0000 C   0  0  0  0  0  0  0  0  0  0  0  0
    1.3042   -0.1792    0.0000 C   0  0  0  0  0  0  0  0  0  0  0  0
    4.9875   -1.0042    0.0000 C   0  0  0  0  0  0  0  0  0  0  0  0
    4.1542   -0.1792    0.0000 C   0  0  0  0  0  0  0  0  0  0  0  0
    2.7292   -0.1792    0.0000 C   0  0  0  0  0  0  0  0  0  0  0  0
    2.0167   -1.4042    0.0000 C   0  0  0  0  0  0  0  0  0  0  0  0
    1.3042   -1.0000    0.0000 C   0  0  0  0  0  0  0  0  0  0  0  0
    2.0167    0.2333    0.0000 C   0  0  0  0  0  0  0  0  0  0  0  0
   -1.9333    0.9458    0.0000 C   0  0  0  0  0  0  0  0  0  0  0  0
   -3.8958    2.0833    0.0000 C   0  0  0  0  0  0  0  0  0  0  0  0
   -5.1958   -0.1792    0.0000 C   0  0  0  0  0  0  0  0  0  0  0  0
  2  7  1  0  0  0  0
  3  1  2  0  0  0  0
  4  1  1  0  0  0  0
  5  1  1  0  0  0  0
  6  9  1  0  0  0  0
  7  5  1  0  0  0  0
  8 20  1  0  0  0  0
  9  2  1  0  0  0  0
 10  3  1  0  0  0  0
 11  4  2  0  0  0  0
 12  2  2  0  0  0  0
 13 11  1  0  0  0  0
 14 17  1  0  0  0  0
 15  6  2  0  0  0  0
 16 14  1  0  0  0  0
 17 21  1  0  0  0  0
 18 15  1  0  0  0  0
 19 16  1  0  0  0  0
 20 16  1  0  0  0  0
 21 24  2  0  0  0  0
 22 23  1  0  0  0  0
 23 18  2  0  0  0  0
 24 18  1  0  0  0  0
 25  7  1  0  0  0  0
 26 10  1  0  0  0  0
 27 11  1  0  0  0  0
 10 13  2  0  0  0  0
 22 17  2  0  0  0  0
 19  8  1  0  0  0  0
M  END
> <#>
833

> <PLATE>
LAT011

> <ROW>
A

> <COL>
6

> <COORD>
A06

> <LATID>
LAT011A06

> <Supplier>
Chembridge

> <Suplier_CAT#>
5633308

> <Name>
Novel

> <Sec_Name>
193_A08

> <Concentration_(mM)>
2.5

> <IC50_(µM)>
94

> <Yeast_Active?>
-

> <Pubchem_CID>
1353129

$$$$
