
  -ISIS-  08130814242D

 26 28  0  0  0  0  0  0  0  0999 V2000
   -5.6708   -7.7375    0.0000 C   0  0  0  0  0  0  0  0  0  0  0  0
   -5.6708   -4.6375    0.0000 N   0  0  3  0  0  0  0  0  0  0  0  0
   -8.3542   -3.0875    0.0000 C   0  0  0  0  0  0  0  0  0  0  0  0
   -8.3542   -9.2875    0.0000 N   0  0  0  0  0  0  0  0  0  0  0  0
  -11.0375   -4.6375    0.0000 C   0  0  0  0  0  0  0  0  0  0  0  0
   -2.9958   -3.0875    0.0000 C   0  0  0  0  0  0  0  0  0  0  0  0
  -11.0375   -7.7375    0.0000 C   0  0  3  0  0  0  0  0  0  0  0  0
   -2.8958   -9.2875    0.0000 S   0  0  0  0  0  0  0  0  0  0  0  0
    7.9375   -3.0875    0.0000 C   0  0  0  0  0  0  0  0  0  0  0  0
   -0.3000   -4.6375    0.0000 C   0  0  0  0  0  0  0  0  0  0  0  0
    5.2542   -4.6375    0.0000 C   0  0  0  0  0  0  0  0  0  0  0  0
    2.4667   -3.0875    0.0000 C   0  0  0  0  0  0  0  0  0  0  0  0
    7.9375    0.0000    0.0000 C   0  0  0  0  0  0  0  0  0  0  0  0
    5.2542   -7.7375    0.0000 O   0  0  0  0  0  0  0  0  0  0  0  0
   -8.3542    0.1500    0.0000 C   0  0  0  0  0  0  0  0  0  0  0  0
   10.6292    1.5458    0.0000 C   0  0  0  0  0  0  0  0  0  0  0  0
   -2.9958    0.0000    0.0000 C   0  0  0  0  0  0  0  0  0  0  0  0
  -12.2792  -10.6792    0.0000 C   0  0  0  0  0  0  0  0  0  0  0  0
  -14.0292   -6.9542    0.0000 C   0  0  0  0  0  0  0  0  0  0  0  0
    2.4667    0.0000    0.0000 C   0  0  0  0  0  0  0  0  0  0  0  0
   -0.3000    1.5458    0.0000 C   0  0  0  0  0  0  0  0  0  0  0  0
   10.6292    4.6375    0.0000 C   0  0  0  0  0  0  0  0  0  0  0  0
   13.3042    0.0000    0.0000 C   0  0  0  0  0  0  0  0  0  0  0  0
   16.0000    1.5458    0.0000 C   0  0  0  0  0  0  0  0  0  0  0  0
   13.3042    6.1875    0.0000 C   0  0  0  0  0  0  0  0  0  0  0  0
   16.0000    4.6375    0.0000 C   0  0  0  0  0  0  0  0  0  0  0  0
  2  1  1  0  0  0  0
  3  2  1  0  0  0  0
  4  1  1  0  0  0  0
  5  7  1  0  0  0  0
  6  2  1  0  0  0  0
  7  4  1  0  0  0  0
  8  1  2  0  0  0  0
  9 11  1  0  0  0  0
 10  6  1  0  0  0  0
 11 12  1  0  0  0  0
 12 10  2  0  0  0  0
 13  9  2  0  0  0  0
 14 11  2  0  0  0  0
 15  3  1  0  0  0  0
 16 13  1  0  0  0  0
 17  6  2  0  0  0  0
 18  7  1  0  0  0  0
 19  7  1  0  0  0  0
 20 21  2  0  0  0  0
 21 17  1  0  0  0  0
 22 16  2  0  0  0  0
 23 16  1  0  0  0  0
 24 23  2  0  0  0  0
 25 22  1  0  0  0  0
 26 24  1  0  0  0  0
  5  3  2  0  0  0  0
 20 12  1  0  0  0  0
 25 26  2  0  0  0  0
M  END
> <#>
615

> <PLATE>
LAT008

> <ROW>
G

> <COL>
8

> <COORD>
G08

> <LATID>
LAT008G08

> <Supplier>
Chembridge

> <Suplier_CAT#>
5533789

> <Name>
Novel

> <Sec_Name>
154_A10

> <Concentration_(mM)>
2.5

> <IC50_(µM)>
32

> <Yeast_Active?>
-

> <Pubchem_CID>
2850560

$$$$
