
  -ISIS-  08130814242D

 21 23  0  0  0  0  0  0  0  0999 V2000
   11.3792    0.1125    0.0000 N   0  0  0  0  0  0  0  0  0  0  0  0
   11.6292   -0.6750    0.0000 C   0  0  0  0  0  0  0  0  0  0  0  0
   10.5542    0.1125    0.0000 C   0  0  0  0  0  0  0  0  0  0  0  0
   10.9667   -1.1542    0.0000 S   0  0  0  0  0  0  0  0  0  0  0  0
   10.2917   -0.6750    0.0000 C   0  0  0  0  0  0  0  0  0  0  0  0
   12.4167   -0.9292    0.0000 N   0  0  0  0  0  0  0  0  0  0  0  0
   10.0667    0.7833    0.0000 C   0  0  0  0  0  0  0  0  0  0  0  0
   13.4792    0.9750    0.0000 C   0  0  0  0  0  0  0  0  0  0  0  0
   13.3125    1.7833    0.0000 C   0  0  0  0  0  0  0  0  0  0  0  0
    9.2417    0.6958    0.0000 N   0  0  0  0  0  0  0  0  0  0  0  0
   12.8625    0.4250    0.0000 C   0  0  0  0  0  0  0  0  0  0  0  0
   13.0292   -0.3792    0.0000 C   0  0  0  0  0  0  0  0  0  0  0  0
   12.5292    2.0458    0.0000 O   0  0  0  0  0  0  0  0  0  0  0  0
   14.2667    0.7208    0.0000 C   0  0  0  0  0  0  0  0  0  0  0  0
   14.4292   -0.0917    0.0000 C   0  0  0  0  0  0  0  0  0  0  0  0
    8.7625    1.3708    0.0000 C   0  0  0  0  0  0  0  0  0  0  0  0
   13.8167   -0.6375    0.0000 C   0  0  0  0  0  0  0  0  0  0  0  0
   13.9292    2.3333    0.0000 C   0  0  0  0  0  0  0  0  0  0  0  0
   10.4042    1.5375    0.0000 C   0  0  0  0  0  0  0  0  0  0  0  0
    9.1042    2.1208    0.0000 C   0  0  0  0  0  0  0  0  0  0  0  0
    9.9250    2.2083    0.0000 C   0  0  0  0  0  0  0  0  0  0  0  0
  2  1  2  0  0  0  0
  3  1  1  0  0  0  0
  4  2  1  0  0  0  0
  5  3  2  0  0  0  0
  6  2  1  0  0  0  0
  7  3  1  0  0  0  0
  8 11  2  0  0  0  0
  9  8  1  0  0  0  0
 10  7  1  0  0  0  0
 11 12  1  0  0  0  0
 12  6  1  0  0  0  0
 13  9  2  0  0  0  0
 14 15  2  0  0  0  0
 15 17  1  0  0  0  0
 16 10  2  0  0  0  0
 17 12  2  0  0  0  0
 18  9  1  0  0  0  0
 19  7  2  0  0  0  0
 20 21  2  0  0  0  0
 21 19  1  0  0  0  0
  4  5  1  0  0  0  0
 20 16  1  0  0  0  0
 14  8  1  0  0  0  0
M  END
> <#>
1016

> <PLATE>
LAT013

> <ROW>
H

> <COL>
8

> <COORD>
H08

> <LATID>
LAT013H08

> <Supplier>
Chembridge

> <Suplier_CAT#>
5772444

> <Name>
Novel

> <Sec_Name>
244_E02

> <Concentration_(mM)>
2.5

> <IC50_(µM)>
65

> <Yeast_Active?>
-

> <Pubchem_CID>
704416

$$$$
