
  -ISIS-  08130814242D

 10 10  0  0  0  0  0  0  0  0999 V2000
    7.6202   -3.2859    0.0000 N   0  0  3  0  0  0  0  0  0  0  0  0
    7.1740   -4.0587    0.0000 C   0  0  0  0  0  0  0  0  0  0  0  0
    7.6202   -4.8315    0.0000 O   0  0  0  0  0  0  0  0  0  0  0  0
    6.2817   -4.0587    0.0000 N   0  0  0  0  0  0  0  0  0  0  0  0
    5.8355   -3.2859    0.0000 C   0  0  0  0  0  0  0  0  0  0  0  0
    4.9432   -3.2859    0.0000 O   0  0  0  0  0  0  0  0  0  0  0  0
    6.2817   -2.5132    0.0000 C   0  0  0  0  0  0  0  0  0  0  0  0
    7.1740   -2.5132    0.0000 C   0  0  0  0  0  0  0  0  0  0  0  0
    8.5125   -3.2859    0.0000 C   0  0  0  0  0  0  0  0  0  0  0  0
    7.6202   -1.7404    0.0000 N   0  0  0  0  0  0  0  0  0  0  0  0
  1  2  1  0  0  0  0
  2  3  2  0  0  0  0
  2  4  1  0  0  0  0
  4  5  1  0  0  0  0
  5  6  2  0  0  0  0
  5  7  1  0  0  0  0
  7  8  2  0  0  0  0
  1  8  1  0  0  0  0
  1  9  1  0  0  0  0
  8 10  1  0  0  0  0
M  END
> <#>
503

> <PLATE>
LAT007

> <ROW>
G

> <COL>
4

> <COORD>
G04

> <LATID>
LAT007G04

> <Supplier>
Aldrich

> <Suplier_CAT#>
34,679-9

> <Name>
6-Amino-1-Methyluracil

> <Concentration_(mM)>
2.5

> <IC50_(µM)>
inactive

> <Yeast_Active?>
-

> <Pubchem_CID>
75520

$$$$
