
  -ISIS-  08130814242D

 11 11  0  0  0  0  0  0  0  0999 V2000
    5.2390   -3.6723    0.0000 C   0  0  0  0  0  0  0  0  0  0  0  0
    6.1313   -3.6723    0.0000 C   0  0  0  0  0  0  0  0  0  0  0  0
    6.5775   -2.8996    0.0000 C   0  0  0  0  0  0  0  0  0  0  0  0
    7.4698   -2.8996    0.0000 C   0  0  0  0  0  0  0  0  0  0  0  0
    7.9160   -3.6723    0.0000 C   0  0  0  0  0  0  0  0  0  0  0  0
    7.4698   -4.4451    0.0000 C   0  0  0  0  0  0  0  0  0  0  0  0
    6.5775   -4.4451    0.0000 C   0  0  0  0  0  0  0  0  0  0  0  0
    4.7928   -4.4451    0.0000 O   0  0  0  0  0  0  0  0  0  0  0  0
    4.7928   -2.8996    0.0000 O   0  0  0  0  0  0  0  0  0  0  0  0
    8.8083   -3.6723    0.0000 Cl  0  0  0  0  0  0  0  0  0  0  0  0
    6.1313   -2.1268    0.0000 Cl  0  0  0  0  0  0  0  0  0  0  0  0
  1  2  1  0  0  0  0
  2  3  1  0  0  0  0
  3  4  2  0  0  0  0
  4  5  1  0  0  0  0
  5  6  2  0  0  0  0
  6  7  1  0  0  0  0
  2  7  2  0  0  0  0
  1  8  2  0  0  0  0
  1  9  1  0  0  0  0
  5 10  1  0  0  0  0
  3 11  1  0  0  0  0
M  END
> <#>
487

> <PLATE>
LAT007

> <ROW>
G

> <COL>
2

> <COORD>
G02

> <LATID>
LAT007G02

> <Supplier>
Aldrich

> <Suplier_CAT#>
139572

> <Name>
2,4-Dichlorobenzoic Acid

> <Concentration_(mM)>
2.5

> <IC50_(µM)>
>100

> <Yeast_Active?>
-

> <Pubchem_CID>
5764

$$$$
