
  -ISIS-  08130814242D

 19 19  0  0  0  0  0  0  0  0999 V2000
   -1.8125   -1.0792    0.0000 N   0  0  3  0  0  0  0  0  0  0  0  0
   -1.3000   -0.7875    0.0000 C   0  0  0  0  0  0  0  0  0  0  0  0
   -2.3208   -0.7875    0.0000 C   0  0  0  0  0  0  0  0  0  0  0  0
   -0.7958   -1.0792    0.0000 N   0  0  3  0  0  0  0  0  0  0  0  0
   -0.2708   -0.7875    0.0000 C   0  0  0  0  0  0  0  0  0  0  0  0
   -1.3000   -0.2000    0.0000 S   0  0  0  0  0  0  0  0  0  0  0  0
   -2.3208   -0.2000    0.0000 O   0  0  0  0  0  0  0  0  0  0  0  0
    0.2292   -1.0792    0.0000 C   0  0  0  0  0  0  0  0  0  0  0  0
   -2.8458   -1.0792    0.0000 C   0  0  3  0  0  0  0  0  0  0  0  0
    0.2292   -1.6667    0.0000 O   0  0  0  0  0  0  0  0  0  0  0  0
   -0.2708   -0.2000    0.0000 C   0  0  0  0  0  0  0  0  0  0  0  0
    0.7375   -0.7875    0.0000 C   0  0  0  0  0  0  0  0  0  0  0  0
   -2.8458   -1.6667    0.0000 C   0  0  0  0  0  0  0  0  0  0  0  0
   -3.3500   -0.7875    0.0000 C   0  0  0  0  0  0  0  0  0  0  0  0
    0.7375   -1.9667    0.0000 C   0  0  0  0  0  0  0  0  0  0  0  0
    0.2292    0.0958    0.0000 C   0  0  0  0  0  0  0  0  0  0  0  0
    0.7375   -0.2000    0.0000 C   0  0  0  0  0  0  0  0  0  0  0  0
   -1.8125   -1.6667    0.0000 H   0  0  0  0  0  0  0  0  0  0  0  0
   -0.7958   -1.6667    0.0000 H   0  0  0  0  0  0  0  0  0  0  0  0
  2  1  1  0  0  0  0
  3  1  1  0  0  0  0
  4  2  1  0  0  0  0
  5  4  1  0  0  0  0
  6  2  2  0  0  0  0
  7  3  2  0  0  0  0
  8  5  1  0  0  0  0
  9  3  1  0  0  0  0
 10  8  1  0  0  0  0
 11  5  2  0  0  0  0
 12  8  2  0  0  0  0
 13  9  1  0  0  0  0
 14  9  1  0  0  0  0
 15 10  1  0  0  0  0
 16 11  1  0  0  0  0
 17 16  2  0  0  0  0
 18  1  1  0  0  0  0
 19  4  1  0  0  0  0
 17 12  1  0  0  0  0
M  END
> <#>
838

> <PLATE>
LAT011

> <ROW>
F

> <COL>
6

> <COORD>
F06

> <LATID>
LAT011F06

> <Supplier>
Chembridge

> <Suplier_CAT#>
5635393

> <Name>
Novel

> <Sec_Name>
193_C11

> <Concentration_(mM)>
2.5

> <IC50_(µM)>
9.1

> <Yeast_Active?>
-

> <Pubchem_CID>
847561

$$$$
