
  -ISIS-  08130814242D

 30 34  0  0  0  0  0  0  0  0999 V2000
   -3.2208    0.6625    0.0000 N   0  0  3  0  0  0  0  0  0  0  0  0
   -0.1458   -1.4542    0.0000 S   0  0  3  0  0  0  0  0  0  0  0  0
   -4.1000    0.3125    0.0000 C   0  0  0  0  0  0  0  0  0  0  0  0
   -3.2958    1.5708    0.0000 C   0  0  0  0  0  0  0  0  0  0  0  0
   -2.4500    0.1333    0.0000 C   0  0  0  0  0  0  0  0  0  0  0  0
   -0.9208   -0.9542    0.0000 C   0  0  0  0  0  0  0  0  0  0  0  0
   -4.6833    1.0333    0.0000 C   0  0  0  0  0  0  0  0  0  0  0  0
   -4.1708    1.8208    0.0000 C   0  0  0  0  0  0  0  0  0  0  0  0
    0.6500   -1.9292    0.0000 N   0  0  3  0  0  0  0  0  0  0  0  0
   -1.6333    0.5000    0.0000 C   0  0  0  0  0  0  0  0  0  0  0  0
   -0.8625   -0.0167    0.0000 C   0  0  0  0  0  0  0  0  0  0  0  0
   -2.5625   -0.8042    0.0000 C   0  0  0  0  0  0  0  0  0  0  0  0
   -1.7958   -1.3500    0.0000 C   0  0  0  0  0  0  0  0  0  0  0  0
   -0.6708   -2.2500    0.0000 O   0  0  0  0  0  0  0  0  0  0  0  0
    0.3500   -0.7000    0.0000 O   0  0  0  0  0  0  0  0  0  0  0  0
   -4.3333   -0.6000    0.0000 O   0  0  0  0  0  0  0  0  0  0  0  0
   -2.5458    2.1833    0.0000 O   0  0  0  0  0  0  0  0  0  0  0  0
    2.2542   -2.8500    0.0000 O   0  0  0  0  0  0  0  0  0  0  0  0
    0.6500   -2.8542    0.0000 C   0  0  0  0  0  0  0  0  0  0  0  0
    1.4500   -1.4667    0.0000 C   0  0  0  0  0  0  0  0  0  0  0  0
   -4.6125    2.6458    0.0000 C   0  0  0  0  0  0  0  0  0  0  0  0
   -5.6208    1.0833    0.0000 C   0  0  0  0  0  0  0  0  0  0  0  0
   -1.5625    1.4458    0.0000 C   0  0  0  0  0  0  0  0  0  0  0  0
   -0.0208    0.3833    0.0000 C   0  0  0  0  0  0  0  0  0  0  0  0
    2.2542   -1.9292    0.0000 C   0  0  0  0  0  0  0  0  0  0  0  0
    1.4542   -3.3167    0.0000 C   0  0  0  0  0  0  0  0  0  0  0  0
   -6.0417    1.9208    0.0000 C   0  0  0  0  0  0  0  0  0  0  0  0
   -5.5500    2.7083    0.0000 C   0  0  0  0  0  0  0  0  0  0  0  0
    0.0500    1.3208    0.0000 C   0  0  0  0  0  0  0  0  0  0  0  0
   -0.7333    1.8500    0.0000 C   0  0  0  0  0  0  0  0  0  0  0  0
  2  6  1  0  0  0  0
  3  1  1  0  0  0  0
  4  1  1  0  0  0  0
  5  1  1  0  0  0  0
  6 13  2  0  0  0  0
  7  3  1  0  0  0  0
  8  4  1  0  0  0  0
  9  2  1  0  0  0  0
 10  5  1  0  0  0  0
 11 10  2  0  0  0  0
 12  5  2  0  0  0  0
 13 12  1  0  0  0  0
 14  2  2  0  0  0  0
 15  2  2  0  0  0  0
 16  3  2  0  0  0  0
 17  4  2  0  0  0  0
 18 25  1  0  0  0  0
 19  9  1  0  0  0  0
 20  9  1  0  0  0  0
 21  8  1  0  0  0  0
 22  7  1  0  0  0  0
 23 10  1  0  0  0  0
 24 11  1  0  0  0  0
 25 20  1  0  0  0  0
 26 19  1  0  0  0  0
 27 22  2  0  0  0  0
 28 21  2  0  0  0  0
 29 30  1  0  0  0  0
 30 23  2  0  0  0  0
  8  7  2  0  0  0  0
 11  6  1  0  0  0  0
 28 27  1  0  0  0  0
 29 24  2  0  0  0  0
 26 18  1  0  0  0  0
M  END
> <#>
822

> <PLATE>
LAT011

> <ROW>
F

> <COL>
4

> <COORD>
F04

> <LATID>
LAT011F04

> <Supplier>
Chembridge

> <Suplier_CAT#>
5664890

> <Name>
Novel

> <Sec_Name>
207_E07

> <Concentration_(mM)>
2.5

> <IC50_(µM)>
>100

> <Yeast_Active?>
-

> <Pubchem_CID>
NULL

$$$$
