
  -ISIS-  08130814242D

 30 34  0  0  0  0  0  0  0  0999 V2000
    8.8091   -1.6747    0.0000 C   0  0  0  0  0  0  0  0  0  0  0  0
    9.5195   -2.0873    0.0000 C   0  0  0  0  0  0  0  0  0  0  0  0
   10.2298   -1.6785    0.0000 C   0  0  0  0  0  0  0  0  0  0  0  0
   10.2311   -0.8572    0.0000 C   0  0  0  0  0  0  0  0  0  0  0  0
    9.5160   -0.4465    0.0000 C   0  0  0  0  0  0  0  0  0  0  0  0
    8.8085   -0.8577    0.0000 C   0  0  0  0  0  0  0  0  0  0  0  0
    5.5382   -3.6997    0.0000 C   0  0  0  0  0  0  0  0  0  0  0  0
    6.2486   -4.1123    0.0000 C   0  0  0  0  0  0  0  0  0  0  0  0
    6.2452   -2.4715    0.0000 C   0  0  0  0  0  0  0  0  0  0  0  0
    5.5377   -2.8827    0.0000 C   0  0  0  0  0  0  0  0  0  0  0  0
    2.6902   -5.3625    0.0000 C   0  0  0  0  0  0  0  0  0  0  0  0
    2.6891   -6.1898    0.0000 N   0  0  0  0  0  0  0  0  0  0  0  0
    3.4039   -6.6027    0.0000 C   0  0  0  0  0  0  0  0  0  0  0  0
    3.4021   -4.9497    0.0000 C   0  0  0  0  0  0  0  0  0  0  0  0
    4.1175   -5.3588    0.0000 C   0  0  0  0  0  0  0  0  0  0  0  0
    4.1182   -6.1857    0.0000 C   0  0  0  0  0  0  0  0  0  0  0  0
    4.8335   -6.5966    0.0000 N   0  0  0  0  0  0  0  0  0  0  0  0
    5.5486   -6.1819    0.0000 C   0  0  0  0  0  0  0  0  0  0  0  0
    5.5438   -5.3519    0.0000 N   0  0  0  0  0  0  0  0  0  0  0  0
    4.8279   -4.9447    0.0000 C   0  0  0  0  0  0  0  0  0  0  0  0
    4.8235   -4.1197    0.0000 N   0  0  0  0  0  0  0  0  0  0  0  0
    6.9602   -2.8822    0.0000 C   0  0  0  0  0  0  0  0  0  0  0  0
    6.9582   -3.7027    0.0000 C   0  0  0  0  0  0  0  0  0  0  0  0
    7.7379   -3.9582    0.0000 C   0  0  0  0  0  0  0  0  0  0  0  0
    8.2219   -3.2956    0.0000 N   0  0  0  0  0  0  0  0  0  0  0  0
    7.7412   -2.6306    0.0000 N   0  0  3  0  0  0  0  0  0  0  0  0
    7.9981   -1.8467    0.0000 C   0  0  0  0  0  0  0  0  0  0  0  0
    1.9757   -4.9501    0.0000 N   0  0  3  0  0  0  0  0  0  0  0  0
    1.9755   -4.1251    0.0000 C   0  0  0  0  0  0  0  0  0  0  0  0
    1.2613   -5.3628    0.0000 C   0  0  0  0  0  0  0  0  0  0  0  0
 14 11  1  0  0  0  0
  3  4  2  0  0  0  0
  7  8  2  0  0  0  0
 15 16  1  0  0  0  0
  8 23  1  0  0  0  0
 16 17  1  0  0  0  0
 17 18  2  0  0  0  0
 22  9  1  0  0  0  0
 18 19  1  0  0  0  0
  4  5  1  0  0  0  0
 19 20  2  0  0  0  0
 20 15  1  0  0  0  0
  9 10  2  0  0  0  0
 20 21  1  0  0  0  0
 21  7  1  0  0  0  0
 22 23  2  0  0  0  0
 10  7  1  0  0  0  0
  2  3  1  0  0  0  0
  5  6  2  0  0  0  0
 11 12  2  0  0  0  0
  6  1  1  0  0  0  0
 23 24  1  0  0  0  0
 24 25  2  0  0  0  0
 25 26  1  0  0  0  0
 26 22  1  0  0  0  0
 12 13  1  0  0  0  0
 26 27  1  0  0  0  0
 27  1  1  0  0  0  0
 13 16  2  0  0  0  0
 11 28  1  0  0  0  0
  1  2  2  0  0  0  0
 28 29  1  0  0  0  0
 15 14  2  0  0  0  0
 28 30  1  0  0  0  0
M  END
> <#>
234

> <PLATE>
LAT003

> <ROW>
B

> <COL>
11

> <COORD>
B11

> <LATID>
LAT003B11

> <Supplier>
Sigma

> <Suplier_CAT#>
G 0668

> <Name>
Gw2974

> <Concentration_(mM)>
2.5

> <IC50_(µM)>
54

> <Yeast_Active?>
-

> <Pubchem_CID>
6603857

> <Description>
Dual EGFR and ErbB-2 receptor tyrosine kinase inhibitor

$$$$
