
  -ISIS-  08130814242D

 29 31  0  0  0  0  0  0  0  0999 V2000
   -1.1517    2.3933    0.0000 C   0  0  0  0  0  0  0  0  0  0  0  0
   -1.7002    2.0766    0.0000 C   0  0  0  0  0  0  0  0  0  0  0  0
   -1.7002    1.4433    0.0000 C   0  0  2  0  0  0  0  0  0  0  0  0
   -1.1517    1.1266    0.0000 C   0  0  0  0  0  0  0  0  0  0  0  0
   -2.2486    1.1266    0.0000 C   0  0  0  0  0  0  0  0  0  0  0  0
   -2.2486    0.4933    0.0000 O   0  0  0  0  0  0  0  0  0  0  0  0
   -2.7971    1.4433    0.0000 O   0  0  0  0  0  0  0  0  0  0  0  0
   -2.7971    2.0766    0.0000 C   0  0  1  0  0  0  0  0  0  0  0  0
   -2.2552    2.3975    0.0000 C   0  0  0  0  0  0  0  0  0  0  0  0
   -2.2610    3.0332    0.0000 C   0  0  2  0  0  0  0  0  0  0  0  0
   -2.8110    3.3441    0.0000 C   0  0  0  0  0  0  0  0  0  0  0  0
   -3.3575    3.0232    0.0000 C   0  0  0  0  0  0  0  0  0  0  0  0
   -3.3529    2.3894    0.0000 C   0  0  1  0  0  0  0  0  0  0  0  0
   -3.8971    2.0686    0.0000 C   0  0  3  0  0  0  0  0  0  0  0  0
   -4.4494    2.3794    0.0000 C   0  0  2  0  0  0  0  0  0  0  0  0
   -4.4552    3.0152    0.0000 C   0  0  0  0  0  0  0  0  0  0  0  0
   -3.9087    3.3360    0.0000 C   0  0  0  0  0  0  0  0  0  0  0  0
   -4.9979    2.0628    0.0000 C   0  0  0  0  0  0  0  0  0  0  0  0
   -3.8971    1.4353    0.0000 C   0  0  0  0  0  0  0  0  0  0  0  0
   -4.4438    1.1196    0.0000 C   0  0  0  0  0  0  0  0  0  0  0  0
   -4.4438    0.4853    0.0000 C   0  0  2  0  0  0  0  0  0  0  0  0
   -3.8921    0.1724    0.0000 C   0  0  0  0  0  0  0  0  0  0  0  0
   -3.8875   -0.4613    0.0000 C   0  0  2  0  0  0  0  0  0  0  0  0
   -4.4340   -0.7822    0.0000 C   0  0  0  0  0  0  0  0  0  0  0  0
   -5.0021   -0.5021    0.0000 C   0  0  0  0  0  0  0  0  0  0  0  0
   -5.5336   -0.7860    0.0000 O   0  0  0  0  0  0  0  0  0  0  0  0
   -4.9921    0.1684    0.0000 O   0  0  0  0  0  0  0  0  0  0  0  0
   -3.3390   -0.7780    0.0000 O   0  0  0  0  0  0  0  0  0  0  0  0
   -1.7126    3.3499    0.0000 C   0  0  0  0  0  0  0  0  0  0  0  0
  1  2  1  0  0  0  0
  2  3  1  0  0  0  0
  3  4  1  6  0  0  0
  3  5  1  0  0  0  0
  5  6  2  0  0  0  0
  5  7  1  0  0  0  0
  8  7  1  6  0  0  0
  8  9  1  0  0  0  0
  9 10  1  0  0  0  0
 10 11  1  0  0  0  0
 11 12  2  0  0  0  0
 13 12  1  6  0  0  0
  8 13  1  0  0  0  0
 13 14  1  0  0  0  0
 14 15  1  0  0  0  0
 15 16  1  0  0  0  0
 16 17  2  0  0  0  0
 12 17  1  0  0  0  0
 15 18  1  1  0  0  0
 14 19  1  0  0  0  0
 19 20  1  0  0  0  0
 21 20  1  6  0  0  0
 21 22  1  0  0  0  0
 22 23  1  0  0  0  0
 23 24  1  0  0  0  0
 24 25  1  0  0  0  0
 25 26  2  0  0  0  0
 25 27  1  0  0  0  0
 21 27  1  0  0  0  0
 23 28  1  1  0  0  0
 10 29  1  6  0  0  0
M  END
> <#>
450

> <PLATE>
LAT006

> <ROW>
B

> <COL>
8

> <COORD>
B08

> <LATID>
LAT006B08

> <Supplier>
Sigma

> <Suplier_CAT#>
M2147

> <Name>
Mevinolin

> <Concentration_(mM)>
2.5

> <IC50_(µM)>
>100

> <Yeast_Active?>
-

> <Pubchem_CID>
3962

> <Description>
HMG-CoA reducatse Inhibitor

$$$$
