
  -ISIS-  08130814242D

 14 14  0  0  0  0  0  0  0  0999 V2000
    3.3121   -0.9521    0.0000 C   0  0  0  0  0  0  0  0  0  0  0  0
    4.3946   -0.3271    0.0000 C   0  0  0  0  0  0  0  0  0  0  0  0
    5.4772   -0.9521    0.0000 C   0  0  0  0  0  0  0  0  0  0  0  0
    5.4772   -2.2021    0.0000 C   0  0  0  0  0  0  0  0  0  0  0  0
    4.3946   -2.8271    0.0000 C   0  0  0  0  0  0  0  0  0  0  0  0
    3.3121   -2.2021    0.0000 C   0  0  0  0  0  0  0  0  0  0  0  0
    2.2296   -2.8271    0.0000 C   0  0  0  0  0  0  0  0  0  0  0  0
    1.1470   -2.2021    0.0000 C   0  0  1  0  0  0  0  0  0  0  0  0
    0.0645   -2.8271    0.0000 C   0  0  0  0  0  0  0  0  0  0  0  0
    0.0645   -4.0771    0.0000 O   0  0  0  0  0  0  0  0  0  0  0  0
   -1.0180   -2.2021    0.0000 O   0  0  0  0  0  0  0  0  0  0  0  0
    1.1470   -0.9521    0.0000 N   0  0  0  0  0  0  0  0  0  0  0  0
    6.5597   -2.8271    0.0000 O   0  0  0  0  0  0  0  0  0  0  0  0
    6.5597   -0.3271    0.0000 O   0  0  0  0  0  0  0  0  0  0  0  0
  1  2  2  0  0  0  0
  2  3  1  0  0  0  0
  3  4  2  0  0  0  0
  4  5  1  0  0  0  0
  5  6  2  0  0  0  0
  1  6  1  0  0  0  0
  6  7  1  0  0  0  0
  7  8  1  0  0  0  0
  8  9  1  0  0  0  0
  9 10  2  0  0  0  0
  9 11  1  0  0  0  0
  8 12  1  1  0  0  0
  4 13  1  0  0  0  0
  3 14  1  0  0  0  0
M  END
> <#>
325

> <PLATE>
LAT005

> <ROW>
E

> <COL>
2

> <COORD>
E02

> <LATID>
LAT005E02

> <Supplier>
Sigma

> <Suplier_CAT#>
D-9628

> <Name>
L-Dopa

> <Concentration_(mM)>
2.5

> <IC50_(µM)>
>100

> <Yeast_Active?>
-

> <Pubchem_CID>
836

$$$$
