
  -ISIS-  08130814242D

 25 28  0  0  0  0  0  0  0  0999 V2000
    4.8176   -2.9489    0.0000 C   0  0  0  0  0  0  0  0  0  0  0  0
    4.6514   -4.5303    0.0000 N   0  0  3  0  0  0  0  0  0  0  0  0
    4.3316   -3.6972    0.0000 C   0  0  1  0  0  0  0  0  0  0  0  0
    3.4405   -3.7439    0.0000 C   0  0  0  0  0  0  0  0  0  0  0  0
    3.2095   -4.6058    0.0000 C   0  0  0  0  0  0  0  0  0  0  0  0
    3.9579   -5.0918    0.0000 C   0  0  0  0  0  0  0  0  0  0  0  0
    4.3714   -2.1761    0.0000 O   0  0  0  0  0  0  0  0  0  0  0  0
    5.7099   -2.9489    0.0000 O   0  0  0  0  0  0  0  0  0  0  0  0
    5.5133   -4.7612    0.0000 C   0  0  0  0  0  0  0  0  0  0  0  0
    5.7890   -5.6099    0.0000 O   0  0  0  0  0  0  0  0  0  0  0  0
    6.1104   -4.0981    0.0000 O   0  0  0  0  0  0  0  0  0  0  0  0
    6.9832   -4.2836    0.0000 C   0  0  0  0  0  0  0  0  0  0  0  0
    7.5803   -3.6205    0.0000 C   0  0  3  0  0  0  0  0  0  0  0  0
    7.3947   -2.7477    0.0000 C   0  0  0  0  0  0  0  0  0  0  0  0
    6.6220   -2.3015    0.0000 C   0  0  0  0  0  0  0  0  0  0  0  0
    6.6220   -1.4092    0.0000 C   0  0  0  0  0  0  0  0  0  0  0  0
    7.3947   -0.9630    0.0000 C   0  0  0  0  0  0  0  0  0  0  0  0
    8.1675   -1.4092    0.0000 C   0  0  0  0  0  0  0  0  0  0  0  0
    8.1675   -2.3015    0.0000 C   0  0  0  0  0  0  0  0  0  0  0  0
    8.8306   -2.8986    0.0000 C   0  0  0  0  0  0  0  0  0  0  0  0
    9.7181   -2.8053    0.0000 C   0  0  0  0  0  0  0  0  0  0  0  0
   10.2425   -3.5272    0.0000 C   0  0  0  0  0  0  0  0  0  0  0  0
    9.8796   -4.3424    0.0000 C   0  0  0  0  0  0  0  0  0  0  0  0
    8.9922   -4.4357    0.0000 C   0  0  0  0  0  0  0  0  0  0  0  0
    8.4677   -3.7138    0.0000 C   0  0  0  0  0  0  0  0  0  0  0  0
  2  3  1  0  0  0  0
  3  1  1  1  0  0  0
  3  4  1  0  0  0  0
  4  5  1  0  0  0  0
  5  6  1  0  0  0  0
  2  6  1  0  0  0  0
  1  7  2  0  0  0  0
  1  8  1  0  0  0  0
  9 10  2  0  0  0  0
  9 11  1  0  0  0  0
 11 12  1  0  0  0  0
 12 13  1  0  0  0  0
 13 14  1  0  0  0  0
 14 15  2  0  0  0  0
 15 16  1  0  0  0  0
 16 17  2  0  0  0  0
 17 18  1  0  0  0  0
 18 19  2  0  0  0  0
 19 20  1  0  0  0  0
 20 21  2  0  0  0  0
 21 22  1  0  0  0  0
 22 23  2  0  0  0  0
 23 24  1  0  0  0  0
 24 25  2  0  0  0  0
 13 25  1  0  0  0  0
 20 25  1  0  0  0  0
 14 19  1  0  0  0  0
  2  9  1  0  0  0  0
M  END
> <#>
482

> <PLATE>
LAT007

> <ROW>
B

> <COL>
2

> <COORD>
B02

> <LATID>
LAT007B02

> <Supplier>
Peptides International

> <Suplier_CAT#>
FLP-1731-Pl

> <Name>
Fmoc-Proline-Oh

> <Concentration_(mM)>
2.5

> <IC50_(µM)>
>100

> <Yeast_Active?>
-

> <Pubchem_CID>
100106

$$$$
