
  -ISIS-  08130814242D

 22 24  0  0  0  0  0  0  0  0999 V2000
    7.4875   -5.8750    0.0000 C   0  0  0  0  0  0  0  0  0  0  0  0
    7.4042   -6.6917    0.0000 N   0  0  0  0  0  0  0  0  0  0  0  0
    6.7417   -5.5375    0.0000 N   0  0  0  0  0  0  0  0  0  0  0  0
    8.2042   -5.4542    0.0000 N   0  0  0  0  0  0  0  0  0  0  0  0
    6.5917   -6.8667    0.0000 C   0  0  0  0  0  0  0  0  0  0  0  0
    8.2042   -4.6292    0.0000 C   0  0  0  0  0  0  0  0  0  0  0  0
    6.1792   -6.1542    0.0000 C   0  0  0  0  0  0  0  0  0  0  0  0
    5.3542   -7.5792    0.0000 C   0  0  0  0  0  0  0  0  0  0  0  0
    4.9292   -8.3042    0.0000 C   0  0  0  0  0  0  0  0  0  0  0  0
    6.1792   -7.5792    0.0000 C   0  0  0  0  0  0  0  0  0  0  0  0
    8.9167   -4.2167    0.0000 O   0  0  0  0  0  0  0  0  0  0  0  0
    4.9417   -6.8667    0.0000 C   0  0  0  0  0  0  0  0  0  0  0  0
    5.3417   -9.0167    0.0000 O   0  0  0  0  0  0  0  0  0  0  0  0
    5.3542   -6.1542    0.0000 C   0  0  0  0  0  0  0  0  0  0  0  0
    4.1042   -8.3000    0.0000 C   0  0  0  0  0  0  0  0  0  0  0  0
    7.4917   -4.2167    0.0000 O   0  0  0  0  0  0  0  0  0  0  0  0
    3.6917   -9.0167    0.0000 C   0  0  0  0  0  0  0  0  0  0  0  0
    3.6917   -7.5875    0.0000 C   0  0  0  0  0  0  0  0  0  0  0  0
    6.7750   -4.6292    0.0000 C   0  0  0  0  0  0  0  0  0  0  0  0
    2.8625   -9.0167    0.0000 C   0  0  0  0  0  0  0  0  0  0  0  0
    2.8625   -7.5875    0.0000 C   0  0  0  0  0  0  0  0  0  0  0  0
    2.4417   -8.3000    0.0000 C   0  0  0  0  0  0  0  0  0  0  0  0
  2  1  2  0  0  0  0
  3  1  1  0  0  0  0
  4  1  1  0  0  0  0
  5  2  1  0  0  0  0
  6  4  1  0  0  0  0
  7  3  1  0  0  0  0
  8 10  2  0  0  0  0
  9  8  1  0  0  0  0
 10  5  1  0  0  0  0
 11  6  2  0  0  0  0
 12 14  2  0  0  0  0
 13  9  2  0  0  0  0
 14  7  1  0  0  0  0
 15  9  1  0  0  0  0
 16  6  1  0  0  0  0
 17 15  2  0  0  0  0
 18 15  1  0  0  0  0
 19 16  1  0  0  0  0
 20 17  1  0  0  0  0
 21 18  2  0  0  0  0
 22 21  1  0  0  0  0
  5  7  2  0  0  0  0
 12  8  1  0  0  0  0
 20 22  2  0  0  0  0
M  END
> <#>
134

> <PLATE>
LAT002

> <ROW>
F

> <COL>
8

> <COORD>
F08

> <LATID>
LAT002F08

> <Supplier>
Microsource

> <Suplier_CAT#>
01501110

> <Name>
Mebendazole

> <Concentration_(mM)>
2.5

> <IC50_(µM)>
3

> <Yeast_Active?>
-

> <Pubchem_CID>
4030

> <Description>
Anthelmintic

$$$$
