
  -ISIS-  08130814242D

 17 18  0  0  0  0  0  0  0  0999 V2000
    4.2542   -2.1417    0.0000 S   0  0  3  0  0  0  0  0  0  0  0  0
    5.3500   -2.1417    0.0000 N   0  0  0  0  0  0  0  0  0  0  0  0
    3.5042   -2.1417    0.0000 C   0  0  0  0  0  0  0  0  0  0  0  0
    5.7250   -2.7917    0.0000 C   0  0  0  0  0  0  0  0  0  0  0  0
    4.6292   -1.5000    0.0000 O   0  0  0  0  0  0  0  0  0  0  0  0
    4.6292   -2.7917    0.0000 O   0  0  0  0  0  0  0  0  0  0  0  0
    5.3500   -3.4417    0.0000 N   0  0  0  0  0  0  0  0  0  0  0  0
    3.1292   -1.4917    0.0000 C   0  0  0  0  0  0  0  0  0  0  0  0
    3.1292   -2.7917    0.0000 C   0  0  0  0  0  0  0  0  0  0  0  0
    2.0000   -2.1417    0.0000 C   0  0  0  0  0  0  0  0  0  0  0  0
    1.2500   -2.1417    0.0000 N   0  0  0  0  0  0  0  0  0  0  0  0
    2.3792   -2.7917    0.0000 C   0  0  0  0  0  0  0  0  0  0  0  0
    2.3750   -1.4917    0.0000 C   0  0  0  0  0  0  0  0  0  0  0  0
    5.7292   -4.0917    0.0000 C   0  0  0  0  0  0  0  0  0  0  0  0
    6.4750   -2.7917    0.0000 C   0  0  0  0  0  0  0  0  0  0  0  0
    6.4792   -4.0875    0.0000 C   0  0  0  0  0  0  0  0  0  0  0  0
    6.8500   -3.4375    0.0000 C   0  0  0  0  0  0  0  0  0  0  0  0
  2  1  1  0  0  0  0
  3  1  1  0  0  0  0
  4  2  1  0  0  0  0
  5  1  2  0  0  0  0
  6  1  2  0  0  0  0
  7  4  1  0  0  0  0
  8  3  2  0  0  0  0
  9  3  1  0  0  0  0
 10 12  1  0  0  0  0
 11 10  1  0  0  0  0
 12  9  2  0  0  0  0
 13  8  1  0  0  0  0
 14  7  2  0  0  0  0
 15  4  2  0  0  0  0
 16 17  2  0  0  0  0
 17 15  1  0  0  0  0
 13 10  2  0  0  0  0
 14 16  1  0  0  0  0
M  END
> <#>
105

> <PLATE>
LAT002

> <ROW>
A

> <COL>
5

> <COORD>
A05

> <LATID>
LAT002A05

> <Supplier>
Microsource

> <Suplier_CAT#>
01500551

> <Name>
Sulfapyridine

> <Concentration_(mM)>
2.5

> <IC50_(µM)>
23

> <Yeast_Active?>
-

> <Pubchem_CID>
5336

> <Description>
Antibacterial

$$$$
