
  -ISIS-  08130814242D

 20 22  0  0  0  0  0  0  0  0999 V2000
    1.3500   -0.3000    0.0000 C   0  0  0  0  0  0  0  0  0  0  0  0
    0.4042    1.3458    0.0000 C   0  0  0  0  0  0  0  0  0  0  0  0
    0.4042    0.2500    0.0000 C   0  0  0  0  0  0  0  0  0  0  0  0
    1.3500    1.9000    0.0000 O   0  0  0  0  0  0  0  0  0  0  0  0
    2.3000    1.3625    0.0000 C   0  0  0  0  0  0  0  0  0  0  0  0
    2.3000    0.2500    0.0000 C   0  0  0  0  0  0  0  0  0  0  0  0
   -0.5208    1.9000    0.0000 C   0  0  0  0  0  0  0  0  0  0  0  0
   -0.5208   -0.3000    0.0000 C   0  0  0  0  0  0  0  0  0  0  0  0
    1.3500   -1.3792    0.0000 C   0  0  0  0  0  0  0  0  0  0  0  0
    3.2500    1.9333    0.0000 O   0  0  0  0  0  0  0  0  0  0  0  0
   -1.4708    1.3625    0.0000 C   0  0  0  0  0  0  0  0  0  0  0  0
   -1.4708    0.2500    0.0000 C   0  0  0  0  0  0  0  0  0  0  0  0
   -2.4208    1.9333    0.0000 O   0  0  0  0  0  0  0  0  0  0  0  0
    0.4000   -1.9167    0.0000 C   0  0  0  0  0  0  0  0  0  0  0  0
    2.2792   -1.9167    0.0000 C   0  0  0  0  0  0  0  0  0  0  0  0
   -2.4000    3.0208    0.0000 C   0  0  0  0  0  0  0  0  0  0  0  0
   -3.3500    3.5708    0.0000 C   0  0  0  0  0  0  0  0  0  0  0  0
    0.3792   -3.0042    0.0000 C   0  0  0  0  0  0  0  0  0  0  0  0
    2.2792   -3.0042    0.0000 C   0  0  0  0  0  0  0  0  0  0  0  0
    1.3500   -3.5542    0.0000 C   0  0  0  0  0  0  0  0  0  0  0  0
  2  3  1  0  0  0  0
  3  1  1  0  0  0  0
  4  5  1  0  0  0  0
  5  6  1  0  0  0  0
  6  1  2  0  0  0  0
  7  2  2  0  0  0  0
  8  3  2  0  0  0  0
  9  1  1  0  0  0  0
 10  5  2  0  0  0  0
 11 12  2  0  0  0  0
 12  8  1  0  0  0  0
 13 11  1  0  0  0  0
 14  9  1  0  0  0  0
 15  9  2  0  0  0  0
 16 13  1  0  0  0  0
 17 16  1  0  0  0  0
 18 14  2  0  0  0  0
 19 15  1  0  0  0  0
 20 19  2  0  0  0  0
  4  2  1  0  0  0  0
 20 18  1  0  0  0  0
  7 11  1  0  0  0  0
M  END
> <#>
779

> <PLATE>
LAT010

> <ROW>
C

> <COL>
9

> <COORD>
C09

> <LATID>
LAT010C09

> <Supplier>
Chembridge

> <Suplier_CAT#>
5620108

> <Name>
Novel

> <Sec_Name>
188_B06

> <Concentration_(mM)>
2.5

> <IC50_(µM)>
23

> <Yeast_Active?>
-

> <Pubchem_CID>
678937

$$$$
