
  -ISIS-  08130814242D

 12 12  0  0  0  0  0  0  0  0999 V2000
   -3.2233    2.2656    0.0000 C   0  0  0  0  0  0  0  0  0  0  0  0
   -3.8570    2.2656    0.0000 C   0  0  0  0  0  0  0  0  0  0  0  0
   -4.1739    1.7168    0.0000 N   0  0  0  0  0  0  0  0  0  0  0  0
   -4.8076    1.7168    0.0000 C   0  0  0  0  0  0  0  0  0  0  0  0
   -5.1245    1.1679    0.0000 O   0  0  0  0  0  0  0  0  0  0  0  0
   -5.1245    2.2656    0.0000 N   0  0  0  0  0  0  0  0  0  0  0  0
   -4.8076    2.8145    0.0000 C   0  0  0  0  0  0  0  0  0  0  0  0
   -5.1245    3.3633    0.0000 O   0  0  0  0  0  0  0  0  0  0  0  0
   -4.1739    2.8145    0.0000 C   0  0  0  0  0  0  0  0  0  0  0  0
   -2.9064    1.7168    0.0000 O   0  0  0  0  0  0  0  0  0  0  0  0
   -2.9064    2.8145    0.0000 O   0  0  0  0  0  0  0  0  0  0  0  0
   -3.8570    3.3633    0.0000 F   0  0  0  0  0  0  0  0  0  0  0  0
  1  2  1  0  0  0  0
  2  3  1  0  0  0  0
  3  4  1  0  0  0  0
  4  5  2  0  0  0  0
  4  6  1  0  0  0  0
  6  7  1  0  0  0  0
  7  8  2  0  0  0  0
  7  9  1  0  0  0  0
  2  9  2  0  0  0  0
  1 10  2  0  0  0  0
  1 11  1  0  0  0  0
  9 12  1  0  0  0  0
M  END
> <#>
453

> <PLATE>
LAT006

> <ROW>
E

> <COL>
8

> <COORD>
E08

> <LATID>
LAT006E08

> <Supplier>
BioVectra

> <Suplier_CAT#>
1555

> <Name>
5-Fluororotic Acid (5-Foa)

> <Concentration_(mM)>
2.5

> <IC50_(µM)>
6.7

> <Yeast_Active?>
-

> <Pubchem_CID>
69711

$$$$
