
  -ISIS-  08130814242D

 18 20  0  0  0  0  0  0  0  0999 V2000
   -2.2333   -1.5042    0.0000 C   0  0  0  0  0  0  0  0  0  0  0  0
   -3.1125   -2.0042    0.0000 N   0  0  0  0  0  0  0  0  0  0  0  0
   -2.2333   -0.5042    0.0000 O   0  0  0  0  0  0  0  0  0  0  0  0
   -3.1125   -0.0042    0.0000 C   0  0  0  0  0  0  0  0  0  0  0  0
   -3.9708   -0.5042    0.0000 C   0  0  0  0  0  0  0  0  0  0  0  0
   -3.9708   -1.5042    0.0000 C   0  0  0  0  0  0  0  0  0  0  0  0
   -1.3500   -2.0042    0.0000 C   0  0  0  0  0  0  0  0  0  0  0  0
   -3.1125    0.9958    0.0000 O   0  0  0  0  0  0  0  0  0  0  0  0
   -0.4958   -1.5042    0.0000 C   0  0  0  0  0  0  0  0  0  0  0  0
    0.3875   -2.0042    0.0000 C   0  0  0  0  0  0  0  0  0  0  0  0
    1.2542   -1.5167    0.0000 Cl  0  0  0  0  0  0  0  0  0  0  0  0
   -4.8333   -0.0042    0.0000 C   0  0  0  0  0  0  0  0  0  0  0  0
   -4.8333   -2.0042    0.0000 C   0  0  0  0  0  0  0  0  0  0  0  0
   -1.3500   -3.0042    0.0000 C   0  0  0  0  0  0  0  0  0  0  0  0
   -0.4708   -3.5042    0.0000 C   0  0  0  0  0  0  0  0  0  0  0  0
    0.4000   -3.0000    0.0000 C   0  0  0  0  0  0  0  0  0  0  0  0
   -5.6958   -0.5042    0.0000 C   0  0  0  0  0  0  0  0  0  0  0  0
   -5.6958   -1.5042    0.0000 C   0  0  0  0  0  0  0  0  0  0  0  0
  2  1  2  0  0  0  0
  3  1  1  0  0  0  0
  4  3  1  0  0  0  0
  5  4  1  0  0  0  0
  6  2  1  0  0  0  0
  7  1  1  0  0  0  0
  8  4  2  0  0  0  0
  9  7  2  0  0  0  0
 10  9  1  0  0  0  0
 11 10  1  0  0  0  0
 12  5  1  0  0  0  0
 13  6  1  0  0  0  0
 14  7  1  0  0  0  0
 15 14  2  0  0  0  0
 16 15  1  0  0  0  0
 17 12  2  0  0  0  0
 18 13  2  0  0  0  0
  6  5  2  0  0  0  0
 16 10  2  0  0  0  0
 18 17  1  0  0  0  0
M  END
> <#>
569

> <PLATE>
LAT008

> <ROW>
A

> <COL>
3

> <COORD>
A03

> <LATID>
LAT008A03

> <Supplier>
Chembridge

> <Suplier_CAT#>
5475937

> <Name>
Novel

> <Sec_Name>
138_D04

> <Concentration_(mM)>
2.5

> <IC50_(µM)>
16

> <Yeast_Active?>
-

> <Pubchem_CID>
702833

$$$$
