
  -ISIS-  08130814242D

 25 27  0  0  0  0  0  0  0  0999 V2000
    5.5875   -1.3292    0.0000 C   0  0  0  0  0  0  0  0  0  0  0  0
    4.8500   -1.1667    0.0000 O   0  0  0  0  0  0  0  0  0  0  0  0
    2.1792   -0.4167    0.0000 C   0  0  0  0  0  0  0  0  0  0  0  0
    5.9542   -0.6792    0.0000 C   0  0  0  0  0  0  0  0  0  0  0  0
    4.7667   -0.4167    0.0000 C   0  0  0  0  0  0  0  0  0  0  0  0
    3.4792   -0.4167    0.0000 N   0  0  0  0  0  0  0  0  0  0  0  0
    5.4542   -0.1167    0.0000 C   0  0  0  0  0  0  0  0  0  0  0  0
    1.5292   -0.0500    0.0000 C   0  0  3  0  0  0  0  0  0  0  0  0
    5.8875   -2.0042    0.0000 C   0  0  0  0  0  0  0  0  0  0  0  0
    4.1292   -0.0500    0.0000 C   0  0  0  0  0  0  0  0  0  0  0  0
    2.8292   -0.0500    0.0000 N   0  0  0  0  0  0  0  0  0  0  0  0
    2.1792   -1.1667    0.0000 O   0  0  0  0  0  0  0  0  0  0  0  0
    0.8792   -0.4167    0.0000 C   0  0  0  0  0  0  0  0  0  0  0  0
    5.4500   -2.6167    0.0000 C   0  0  0  0  0  0  0  0  0  0  0  0
    6.6375   -2.0875    0.0000 C   0  0  0  0  0  0  0  0  0  0  0  0
    6.5000   -3.3792    0.0000 C   0  0  0  0  0  0  0  0  0  0  0  0
    1.5292    0.6958    0.0000 O   0  0  0  0  0  0  0  0  0  0  0  0
    6.9375   -2.7792    0.0000 C   0  0  0  0  0  0  0  0  0  0  0  0
    5.7500   -3.3000    0.0000 C   0  0  0  0  0  0  0  0  0  0  0  0
    6.8000   -4.0667    0.0000 Br  0  0  0  0  0  0  0  0  0  0  0  0
    0.2167   -0.0292    0.0000 C   0  0  0  0  0  0  0  0  0  0  0  0
    0.8792   -1.1667    0.0000 C   0  0  0  0  0  0  0  0  0  0  0  0
   -0.4208   -0.4167    0.0000 C   0  0  0  0  0  0  0  0  0  0  0  0
    0.2167   -1.5500    0.0000 C   0  0  0  0  0  0  0  0  0  0  0  0
   -0.4208   -1.1667    0.0000 C   0  0  0  0  0  0  0  0  0  0  0  0
  2  1  1  0  0  0  0
  3 11  1  0  0  0  0
  4  1  2  0  0  0  0
  5  2  1  0  0  0  0
  6 10  2  0  0  0  0
  7  4  1  0  0  0  0
  8  3  1  0  0  0  0
  9  1  1  0  0  0  0
 10  5  1  0  0  0  0
 11  6  1  0  0  0  0
 12  3  2  0  0  0  0
 13  8  1  0  0  0  0
 14  9  1  0  0  0  0
 15  9  2  0  0  0  0
 16 18  2  0  0  0  0
 17  8  1  0  0  0  0
 18 15  1  0  0  0  0
 19 14  2  0  0  0  0
 20 16  1  0  0  0  0
 21 13  1  0  0  0  0
 22 13  2  0  0  0  0
 23 21  2  0  0  0  0
 24 22  1  0  0  0  0
 25 24  2  0  0  0  0
  5  7  2  0  0  0  0
 16 19  1  0  0  0  0
 25 23  1  0  0  0  0
M  END
> <#>
674

> <PLATE>
LAT009

> <ROW>
B

> <COL>
6

> <COORD>
B06

> <LATID>
LAT009B06

> <Supplier>
Chembridge

> <Suplier_CAT#>
5543515

> <Name>
Novel

> <Sec_Name>
160_H06

> <Concentration_(mM)>
2.5

> <IC50_(µM)>
18

> <Yeast_Active?>
-

> <Pubchem_CID>
1283966

$$$$
