
  -ISIS-  08130814242D

 29 30  0  0  0  0  0  0  0  0999 V2000
    0.9944   -3.6875    0.0000 C   0  0  0  0  0  0  0  0  0  0  0  0
    0.9932   -4.5148    0.0000 C   0  0  0  0  0  0  0  0  0  0  0  0
    1.7081   -4.9277    0.0000 C   0  0  0  0  0  0  0  0  0  0  0  0
    2.4245   -4.5144    0.0000 C   0  0  0  0  0  0  0  0  0  0  0  0
    2.4216   -3.6838    0.0000 C   0  0  0  0  0  0  0  0  0  0  0  0
    1.7063   -3.2747    0.0000 C   0  0  0  0  0  0  0  0  0  0  0  0
    0.2798   -3.2751    0.0000 O   0  0  0  0  0  0  0  0  0  0  0  0
   -0.4345   -3.6878    0.0000 C   0  0  0  0  0  0  0  0  0  0  0  0
   -1.1491   -3.2755    0.0000 C   0  0  0  0  0  0  0  0  0  0  0  0
   -1.8635   -3.6881    0.0000 O   0  0  0  0  0  0  0  0  0  0  0  0
   -1.1493   -2.4505    0.0000 O   0  0  0  0  0  0  0  0  0  0  0  0
    3.1396   -4.9257    0.0000 O   0  0  0  0  0  0  0  0  0  0  0  0
    3.8534   -4.5121    0.0000 C   0  0  0  0  0  0  0  0  0  0  0  0
    4.5686   -4.9235    0.0000 C   0  0  0  0  0  0  0  0  0  0  0  0
    5.2824   -4.5099    0.0000 C   0  0  0  0  0  0  0  0  0  0  0  0
    5.9975   -4.9212    0.0000 O   0  0  0  0  0  0  0  0  0  0  0  0
    6.7113   -4.5076    0.0000 C   0  0  0  0  0  0  0  0  0  0  0  0
    7.4236   -4.9192    0.0000 C   0  0  0  0  0  0  0  0  0  0  0  0
    8.1369   -4.5063    0.0000 C   0  0  0  0  0  0  0  0  0  0  0  0
    8.1361   -3.6804    0.0000 C   0  0  0  0  0  0  0  0  0  0  0  0
    7.4159   -3.2692    0.0000 C   0  0  0  0  0  0  0  0  0  0  0  0
    6.7055   -3.6845    0.0000 C   0  0  0  0  0  0  0  0  0  0  0  0
    7.4239   -5.7442    0.0000 C   0  0  0  0  0  0  0  0  0  0  0  0
    6.7096   -6.1570    0.0000 C   0  0  0  0  0  0  0  0  0  0  0  0
    6.7099   -6.9820    0.0000 C   0  0  0  0  0  0  0  0  0  0  0  0
    8.8518   -4.9180    0.0000 O   0  0  0  0  0  0  0  0  0  0  0  0
    8.8493   -3.2658    0.0000 C   0  0  0  0  0  0  0  0  0  0  0  0
    9.5650   -3.6763    0.0000 O   0  0  0  0  0  0  0  0  0  0  0  0
    8.8469   -2.4408    0.0000 C   0  0  0  0  0  0  0  0  0  0  0  0
  1  7  1  0  0  0  0
 14 15  1  0  0  0  0
  3  4  2  0  0  0  0
 15 16  1  0  0  0  0
  7  8  1  0  0  0  0
 16 17  1  0  0  0  0
 17 18  2  0  0  0  0
  8  9  1  0  0  0  0
 18 19  1  0  0  0  0
  4  5  1  0  0  0  0
 19 20  2  0  0  0  0
  9 10  1  0  0  0  0
 20 21  1  0  0  0  0
  2  3  1  0  0  0  0
 21 22  2  0  0  0  0
 22 17  1  0  0  0  0
  9 11  2  0  0  0  0
 18 23  1  0  0  0  0
  5  6  2  0  0  0  0
 23 24  1  0  0  0  0
  4 12  1  0  0  0  0
 24 25  1  0  0  0  0
  6  1  1  0  0  0  0
 19 26  1  0  0  0  0
 12 13  1  0  0  0  0
 20 27  1  0  0  0  0
  1  2  2  0  0  0  0
 27 28  2  0  0  0  0
 13 14  1  0  0  0  0
 27 29  1  0  0  0  0
M  END
> <#>
242

> <PLATE>
LAT004

> <ROW>
B

> <COL>
2

> <COORD>
B02

> <LATID>
LAT004B02

> <Supplier>
Sigma

> <Suplier_CAT#>
L 2167

> <Name>
L-165,041

> <Concentration_(mM)>
2.5

> <IC50_(µM)>
8.5

> <Yeast_Active?>
-

> <Pubchem_CID>
6603901

> <Description>
Peroxisome proliferator-activated receptor (PPAR) gamma agonist.

$$$$
