
  -ISIS-  08130814242D

 19 20  0  0  0  0  0  0  0  0999 V2000
    6.0375   -2.7125    0.0000 S   0  0  3  0  0  0  0  0  0  0  0  0
    6.0292   -3.5417    0.0000 N   0  0  0  0  0  0  0  0  0  0  0  0
    6.7542   -3.9625    0.0000 C   0  0  0  0  0  0  0  0  0  0  0  0
    7.4667   -3.5500    0.0000 N   0  0  0  0  0  0  0  0  0  0  0  0
    6.0375   -1.8875    0.0000 C   0  0  0  0  0  0  0  0  0  0  0  0
    8.1792   -4.7917    0.0000 N   0  0  0  0  0  0  0  0  0  0  0  0
    6.7542   -4.7917    0.0000 C   0  0  0  0  0  0  0  0  0  0  0  0
    5.2667   -2.7167    0.0000 O   0  0  0  0  0  0  0  0  0  0  0  0
    6.8625   -2.7125    0.0000 O   0  0  0  0  0  0  0  0  0  0  0  0
    7.4667   -5.2042    0.0000 C   0  0  0  0  0  0  0  0  0  0  0  0
    8.1792   -3.9625    0.0000 C   0  0  0  0  0  0  0  0  0  0  0  0
    6.7542   -1.4750    0.0000 C   0  0  0  0  0  0  0  0  0  0  0  0
    5.3250   -1.4750    0.0000 C   0  0  0  0  0  0  0  0  0  0  0  0
    6.0375   -0.2292    0.0000 C   0  0  0  0  0  0  0  0  0  0  0  0
    6.0292    0.5958    0.0000 N   0  0  0  0  0  0  0  0  0  0  0  0
    5.3250   -0.6417    0.0000 C   0  0  0  0  0  0  0  0  0  0  0  0
    6.7542   -0.6417    0.0000 C   0  0  0  0  0  0  0  0  0  0  0  0
    7.4667   -6.0292    0.0000 O   0  0  0  0  0  0  0  0  0  0  0  0
    6.7542   -6.4417    0.0000 C   0  0  0  0  0  0  0  0  0  0  0  0
  2  1  1  0  0  0  0
  3  2  1  0  0  0  0
  4  3  2  0  0  0  0
  5  1  1  0  0  0  0
  6 10  1  0  0  0  0
  7  3  1  0  0  0  0
  8  1  2  0  0  0  0
  9  1  2  0  0  0  0
 10  7  2  0  0  0  0
 11  4  1  0  0  0  0
 12  5  2  0  0  0  0
 13  5  1  0  0  0  0
 14 16  1  0  0  0  0
 15 14  1  0  0  0  0
 16 13  2  0  0  0  0
 17 12  1  0  0  0  0
 18 10  1  0  0  0  0
 19 18  1  0  0  0  0
 14 17  2  0  0  0  0
 11  6  2  0  0  0  0
M  END
> <#>
86

> <PLATE>
LAT002

> <ROW>
F

> <COL>
2

> <COORD>
F02

> <LATID>
LAT002F02

> <Supplier>
Microsource

> <Suplier_CAT#>
01501147

> <Name>
Sulfamonomethoxine

> <Concentration_(mM)>
2.5

> <IC50_(µM)>
3.7

> <Yeast_Active?>
-

> <Pubchem_CID>
5332

> <Description>
Antibacterial

$$$$
