
  -ISIS-  08130814242D

 26 29  0  0  0  0  0  0  0  0999 V2000
    5.8500   -3.4917    0.0000 N   0  0  3  0  0  0  0  0  0  0  0  0
    6.5667   -2.2750    0.0000 C   0  0  0  0  0  0  0  0  0  0  0  0
    5.1417   -3.0875    0.0000 C   0  0  0  0  0  0  0  0  0  0  0  0
    4.4292   -3.4917    0.0000 C   0  0  0  0  0  0  0  0  0  0  0  0
    5.1500   -2.2667    0.0000 C   0  0  0  0  0  0  0  0  0  0  0  0
    6.5667   -3.1000    0.0000 C   0  0  0  0  0  0  0  0  0  0  0  0
    5.8625   -1.8542    0.0000 C   0  0  0  0  0  0  0  0  0  0  0  0
    3.7167   -3.0875    0.0000 C   0  0  0  0  0  0  0  0  0  0  0  0
    4.4292   -4.3125    0.0000 O   0  0  0  0  0  0  0  0  0  0  0  0
    3.7167   -2.2625    0.0000 C   0  0  0  0  0  0  0  0  0  0  0  0
    4.4292   -1.8500    0.0000 C   0  0  0  0  0  0  0  0  0  0  0  0
    3.0042   -3.4917    0.0000 N   0  0  3  0  0  0  0  0  0  0  0  0
    7.2875   -1.8667    0.0000 C   0  0  0  0  0  0  0  0  0  0  0  0
    5.8417   -4.3167    0.0000 C   0  0  2  0  0  0  0  0  0  0  0  0
    1.5792   -4.3167    0.0000 N   0  0  3  0  0  0  0  0  0  0  0  0
    5.8667   -1.0292    0.0000 O   0  0  0  0  0  0  0  0  0  0  0  0
    5.1292   -4.7250    0.0000 C   0  0  0  0  0  0  0  0  0  0  0  0
    2.2917   -3.0792    0.0000 C   0  0  0  0  0  0  0  0  0  0  0  0
    3.0042   -4.3167    0.0000 C   0  0  0  0  0  0  0  0  0  0  0  0
    7.2917   -1.0417    0.0000 O   0  0  0  0  0  0  0  0  0  0  0  0
    3.0000   -1.8500    0.0000 F   0  0  0  0  0  0  0  0  0  0  0  0
    1.5792   -3.4917    0.0000 C   0  0  0  0  0  0  0  0  0  0  0  0
    2.2917   -4.7292    0.0000 C   0  0  0  0  0  0  0  0  0  0  0  0
    8.0000   -2.2875    0.0000 O   0  0  0  0  0  0  0  0  0  0  0  0
    0.8667   -4.7292    0.0000 C   0  0  0  0  0  0  0  0  0  0  0  0
    6.5542   -4.7292    0.0000 C   0  0  0  0  0  0  0  0  0  0  0  0
  2  6  2  0  0  0  0
  3  1  1  0  0  0  0
  4  3  1  0  0  0  0
  5  3  2  0  0  0  0
  6  1  1  0  0  0  0
  7  2  1  0  0  0  0
  8  4  2  0  0  0  0
  9 17  1  0  0  0  0
 10 11  2  0  0  0  0
 11  5  1  0  0  0  0
 12  8  1  0  0  0  0
 13  2  1  0  0  0  0
 14  1  1  0  0  0  0
 15 23  1  0  0  0  0
 16  7  2  0  0  0  0
 17 14  1  0  0  0  0
 18 12  1  0  0  0  0
 19 12  1  0  0  0  0
 20 13  2  0  0  0  0
 21 10  1  0  0  0  0
 22 18  1  0  0  0  0
 23 19  1  0  0  0  0
 24 13  1  0  0  0  0
 25 15  1  0  0  0  0
 14 26  1  1  0  0  0
  4  9  1  0  0  0  0
  5  7  1  0  0  0  0
 10  8  1  0  0  0  0
 22 15  1  0  0  0  0
M  END
> <#>
146

> <PLATE>
LAT002

> <ROW>
B

> <COL>
10

> <COORD>
B10

> <LATID>
LAT002B10

> <Supplier>
Microsource

> <Suplier_CAT#>
01504260

> <Name>
Levofloxacin

> <Concentration_(mM)>
2.5

> <IC50_(µM)>
100

> <Yeast_Active?>
-

> <Pubchem_CID>
4583

> <Description>
Antibiotic

$$$$
