
  -ISIS-  08130814242D

 24 25  0  0  0  0  0  0  0  0999 V2000
    0.4133    1.7652    0.0000 O   0  0  0  0  0  0  0  0  0  0  0  0
   -0.3595    1.3190    0.0000 C   0  0  1  0  0  0  0  0  0  0  0  0
   -0.3595    0.4267    0.0000 C   0  0  2  0  0  0  0  0  0  0  0  0
    0.4133   -0.0194    0.0000 N   0  0  0  0  0  0  0  0  0  0  0  0
   -1.1323   -0.0194    0.0000 C   0  0  1  0  0  0  0  0  0  0  0  0
   -1.2239   -0.9076    0.0000 O   0  0  0  0  0  0  0  0  0  0  0  0
   -1.9050    0.4267    0.0000 C   0  0  2  0  0  0  0  0  0  0  0  0
   -2.6778   -0.0194    0.0000 O   0  0  0  0  0  0  0  0  0  0  0  0
   -1.9050    1.3190    0.0000 C   0  0  2  0  0  0  0  0  0  0  0  0
   -1.1323    1.7652    0.0000 O   0  0  0  0  0  0  0  0  0  0  0  0
   -2.6778    1.7652    0.0000 C   0  0  0  0  0  0  0  0  0  0  0  0
   -3.4506    1.3190    0.0000 O   0  0  0  0  0  0  0  0  0  0  0  0
    0.4133   -0.9118    0.0000 C   0  0  0  0  0  0  0  0  0  0  0  0
   -0.2512   -1.5329    0.0000 O   0  0  0  0  0  0  0  0  0  0  0  0
    1.1861   -1.3579    0.0000 C   0  0  0  0  0  0  0  0  0  0  0  0
    1.1861    1.3190    0.0000 C   0  0  0  0  0  0  0  0  0  0  0  0
    1.9588    1.7652    0.0000 C   0  0  0  0  0  0  0  0  0  0  0  0
    2.7316    1.3190    0.0000 C   0  0  0  0  0  0  0  0  0  0  0  0
    2.7316    0.4267    0.0000 C   0  0  0  0  0  0  0  0  0  0  0  0
    1.9588   -0.0194    0.0000 C   0  0  0  0  0  0  0  0  0  0  0  0
    1.1861    0.4267    0.0000 C   0  0  0  0  0  0  0  0  0  0  0  0
    3.5044   -0.0194    0.0000 N   0  3  0  0  0  0  0  0  0  0  0  0
    3.5044   -0.9118    0.0000 O   0  0  0  0  0  0  0  0  0  0  0  0
    4.2771    0.4267    0.0000 O   0  5  0  0  0  0  0  0  0  0  0  0
  2  1  1  1  0  0  0
  2  3  1  0  0  0  0
  3  4  1  6  0  0  0
  3  5  1  0  0  0  0
  5  6  1  1  0  0  0
  5  7  1  0  0  0  0
  7  8  1  6  0  0  0
  7  9  1  0  0  0  0
  9 10  1  0  0  0  0
  9 11  1  1  0  0  0
 11 12  1  0  0  0  0
  2 10  1  0  0  0  0
 13 14  2  0  0  0  0
 13 15  1  0  0  0  0
  4 13  1  0  0  0  0
 16 17  1  0  0  0  0
 17 18  2  0  0  0  0
 18 19  1  0  0  0  0
 19 20  2  0  0  0  0
 20 21  1  0  0  0  0
 16 21  2  0  0  0  0
 22 23  2  0  0  0  0
 22 24  1  0  0  0  0
 19 22  1  0  0  0  0
  1 16  1  0  0  0  0
M  CHG  2  22   1  24  -1
M  END
> <#>
480

> <PLATE>
LAT006

> <ROW>
H

> <COL>
11

> <COORD>
H11

> <LATID>
LAT006H11

> <Supplier>
Sigma

> <Suplier_CAT#>
N9376

> <Name>
4-Nitrophenyl-N-Acetyl-Beta-D-Glucosaminide

> <Concentration_(mM)>
2.5

> <IC50_(µM)>
>100

> <Yeast_Active?>
-

> <Pubchem_CID>
82398

$$$$
