
  -ISIS-  08130814242D

 23 25  0  0  0  0  0  0  0  0999 V2000
    4.7417   -4.8542    0.0000 O   0  0  0  0  0  0  0  0  0  0  0  0
    4.0292   -5.2667    0.0000 C   0  0  0  0  0  0  0  0  0  0  0  0
    4.0292   -6.0917    0.0000 C   0  0  0  0  0  0  0  0  0  0  0  0
    5.4625   -5.2667    0.0000 C   0  0  1  0  0  0  0  0  0  0  0  0
    4.7417   -6.5042    0.0000 C   0  0  0  0  0  0  0  0  0  0  0  0
    3.3167   -6.5042    0.0000 C   0  0  0  0  0  0  0  0  0  0  0  0
    5.4625   -6.0917    0.0000 C   0  0  1  0  0  0  0  0  0  0  0  0
    3.3167   -4.8542    0.0000 C   0  0  0  0  0  0  0  0  0  0  0  0
    2.6042   -6.0917    0.0000 C   0  0  0  0  0  0  0  0  0  0  0  0
    6.1792   -4.8542    0.0000 C   0  0  0  0  0  0  0  0  0  0  0  0
    2.6042   -5.2667    0.0000 C   0  0  0  0  0  0  0  0  0  0  0  0
    6.8917   -5.2667    0.0000 C   0  0  0  0  0  0  0  0  0  0  0  0
    6.1792   -4.0250    0.0000 C   0  0  0  0  0  0  0  0  0  0  0  0
    6.1792   -6.5125    0.0000 O   0  0  0  0  0  0  0  0  0  0  0  0
    3.3167   -7.3292    0.0000 O   0  0  0  0  0  0  0  0  0  0  0  0
    7.6042   -4.0250    0.0000 C   0  0  0  0  0  0  0  0  0  0  0  0
    6.8917   -3.6125    0.0000 C   0  0  0  0  0  0  0  0  0  0  0  0
    7.6042   -4.8542    0.0000 C   0  0  0  0  0  0  0  0  0  0  0  0
    1.8792   -4.8542    0.0000 O   0  0  0  0  0  0  0  0  0  0  0  0
    8.3292   -3.6042    0.0000 O   0  0  0  0  0  0  0  0  0  0  0  0
    4.0292   -7.7417    0.0000 C   0  0  0  0  0  0  0  0  0  0  0  0
    1.1667   -5.2667    0.0000 C   0  0  0  0  0  0  0  0  0  0  0  0
    8.3250   -2.7750    0.0000 C   0  0  0  0  0  0  0  0  0  0  0  0
  2  1  1  0  0  0  0
  3  2  1  0  0  0  0
  4  1  1  0  0  0  0
  5  7  1  0  0  0  0
  6  3  2  0  0  0  0
  7  4  1  0  0  0  0
  8  2  2  0  0  0  0
  9 11  2  0  0  0  0
  4 10  1  6  0  0  0
 11  8  1  0  0  0  0
 12 10  2  0  0  0  0
 13 10  1  0  0  0  0
  7 14  1  6  0  0  0
 15  6  1  0  0  0  0
 16 17  1  0  0  0  0
 17 13  2  0  0  0  0
 18 12  1  0  0  0  0
 19 11  1  0  0  0  0
 20 16  1  0  0  0  0
 21 15  1  0  0  0  0
 22 19  1  0  0  0  0
 23 20  1  0  0  0  0
  3  5  1  0  0  0  0
 18 16  2  0  0  0  0
  9  6  1  0  0  0  0
M  END
> <#>
17

> <PLATE>
LAT001

> <ROW>
A

> <COL>
4

> <COORD>
A04

> <LATID>
LAT001A04

> <Supplier>
Microsource

> <Suplier_CAT#>
00210211

> <Name>
Epiafzelechin Trimethyl Ether

> <Concentration_(mM)>
2.5

> <IC50_(µM)>
55

> <Yeast_Active?>
-

> <Pubchem_CID>
597429

> <Source>
derivative

$$$$
