
  -ISIS-  08130814242D

 22 23  0  0  0  0  0  0  0  0999 V2000
    3.2500   -1.3000    0.0000 N   0  3  0  0  0  0  0  0  0  0  0  0
    2.2667   -1.8792    0.0000 C   0  0  0  0  0  0  0  0  0  0  0  0
   -2.6208    2.0958    0.0000 C   0  0  0  0  0  0  0  0  0  0  0  0
    0.3000    1.5208    0.0000 C   0  0  0  0  0  0  0  0  0  0  0  0
    1.3000   -1.3042    0.0000 C   0  0  0  0  0  0  0  0  0  0  0  0
   -0.6708    2.0958    0.0000 C   0  0  0  0  0  0  0  0  0  0  0  0
   -1.6458    1.5208    0.0000 C   0  0  0  0  0  0  0  0  0  0  0  0
    0.3167   -1.8792    0.0000 C   0  0  0  0  0  0  0  0  0  0  0  0
    3.2500   -0.1500    0.0000 O   0  5  0  0  0  0  0  0  0  0  0  0
   -0.6708   -1.3000    0.0000 C   0  0  0  0  0  0  0  0  0  0  0  0
    4.2167   -1.8542    0.0000 O   0  0  0  0  0  0  0  0  0  0  0  0
   -3.6958    1.7458    0.0000 O   0  0  0  0  0  0  0  0  0  0  0  0
   -2.6208    3.2208    0.0000 C   0  0  0  0  0  0  0  0  0  0  0  0
   -4.3333    2.6625    0.0000 C   0  0  0  0  0  0  0  0  0  0  0  0
    0.3000    0.3958    0.0000 O   0  0  0  0  0  0  0  0  0  0  0  0
   -3.6958    3.5708    0.0000 C   0  0  0  0  0  0  0  0  0  0  0  0
   -0.6708   -0.1667    0.0000 C   0  0  0  0  0  0  0  0  0  0  0  0
    1.2667    2.0958    0.0000 O   0  0  0  0  0  0  0  0  0  0  0  0
   -1.6625   -1.8542    0.0000 O   0  0  0  0  0  0  0  0  0  0  0  0
    2.2667   -3.0042    0.0000 C   0  0  0  0  0  0  0  0  0  0  0  0
    0.3167   -3.0042    0.0000 C   0  0  0  0  0  0  0  0  0  0  0  0
    1.3000   -3.5542    0.0000 C   0  0  0  0  0  0  0  0  0  0  0  0
  2  1  1  0  0  0  0
  3  7  1  0  0  0  0
  4 15  1  0  0  0  0
  5  2  1  0  0  0  0
  6  4  1  0  0  0  0
  7  6  2  0  0  0  0
  8  5  2  0  0  0  0
  9  1  1  0  0  0  0
 10  8  1  0  0  0  0
 11  1  2  0  0  0  0
 12  3  1  0  0  0  0
 13  3  2  0  0  0  0
 14 12  1  0  0  0  0
 15 17  1  0  0  0  0
 16 13  1  0  0  0  0
 17 10  1  0  0  0  0
 18  4  2  0  0  0  0
 19 10  2  0  0  0  0
 20  2  2  0  0  0  0
 21 22  2  0  0  0  0
 22 20  1  0  0  0  0
 21  8  1  0  0  0  0
 14 16  2  0  0  0  0
M  CHG  2   1   1   9  -1
M  END
> <#>
826

> <PLATE>
LAT011

> <ROW>
B

> <COL>
5

> <COORD>
B05

> <LATID>
LAT011B05

> <Supplier>
Chembridge

> <Suplier_CAT#>
5630455

> <Name>
Novel

> <Sec_Name>
192_B02

> <Concentration_(mM)>
2.5

> <IC50_(µM)>
inactive

> <Yeast_Active?>
-

> <Pubchem_CID>
794518

$$$$
