
  -ISIS-  08130814242D

 20 21  0  0  0  0  0  0  0  0999 V2000
    4.6667   -0.0667    0.0000 N   0  3  0  0  0  0  0  0  0  0  0  0
    0.4167    0.8458    0.0000 C   0  0  0  0  0  0  0  0  0  0  0  0
    3.6167    0.1500    0.0000 C   0  0  0  0  0  0  0  0  0  0  0  0
    5.4000    0.7208    0.0000 O   0  5  0  0  0  0  0  0  0  0  0  0
    5.0167   -1.1042    0.0000 O   0  0  0  0  0  0  0  0  0  0  0  0
    1.4792    0.6125    0.0000 C   0  0  0  0  0  0  0  0  0  0  0  0
   -3.1833   -0.2875    0.0000 C   0  0  0  0  0  0  0  0  0  0  0  0
    0.0792    1.8833    0.0000 O   0  0  0  0  0  0  0  0  0  0  0  0
    3.2667    1.1958    0.0000 C   0  0  0  0  0  0  0  0  0  0  0  0
    2.8875   -0.6500    0.0000 C   0  0  0  0  0  0  0  0  0  0  0  0
    2.1875    1.4208    0.0000 C   0  0  0  0  0  0  0  0  0  0  0  0
    1.8042   -0.4042    0.0000 C   0  0  0  0  0  0  0  0  0  0  0  0
   -0.3208    0.0500    0.0000 N   0  0  0  0  0  0  0  0  0  0  0  0
   -3.9125   -1.1000    0.0000 C   0  0  0  0  0  0  0  0  0  0  0  0
   -1.3833    0.2708    0.0000 C   0  0  0  0  0  0  0  0  0  0  0  0
   -2.1125   -0.5292    0.0000 C   0  0  0  0  0  0  0  0  0  0  0  0
   -3.5125    0.7333    0.0000 C   0  0  0  0  0  0  0  0  0  0  0  0
   -4.9958   -0.8542    0.0000 C   0  0  0  0  0  0  0  0  0  0  0  0
   -4.5708    0.9625    0.0000 C   0  0  0  0  0  0  0  0  0  0  0  0
   -5.3000    0.1625    0.0000 C   0  0  0  0  0  0  0  0  0  0  0  0
  2  6  1  0  0  0  0
  3  1  1  0  0  0  0
  4  1  1  0  0  0  0
  5  1  2  0  0  0  0
  6 12  2  0  0  0  0
  7 16  1  0  0  0  0
  8  2  2  0  0  0  0
  9  3  1  0  0  0  0
 10  3  2  0  0  0  0
 11  9  2  0  0  0  0
 12 10  1  0  0  0  0
 13  2  1  0  0  0  0
 14  7  2  0  0  0  0
 15 13  1  0  0  0  0
 16 15  1  0  0  0  0
 17  7  1  0  0  0  0
 18 14  1  0  0  0  0
 19 17  1  0  0  0  0
 20 19  1  0  0  0  0
  6 11  1  0  0  0  0
 18 20  1  0  0  0  0
M  CHG  2   1   1   4  -1
M  END
> <#>
1089

> <PLATE>
LAT014

> <ROW>
A

> <COL>
8

> <COORD>
A08

> <LATID>
LAT014A08

> <Supplier>
Chembridge

> <Suplier_CAT#>
6179395

> <Name>
Novel

> <Concentration_(mM)>
2.5

> <IC50_(µM)>
23

> <Yeast_Active?>
-

> <Pubchem_CID>
675954

$$$$
