
  -ISIS-  08130814242D

 26 28  0  0  0  0  0  0  0  0999 V2000
    0.2000    0.5458    0.0000 N   0  0  3  0  0  0  0  0  0  0  0  0
    0.1542    1.1833    0.0000 C   0  0  0  0  0  0  0  0  0  0  0  0
   -0.8208    0.7625    0.0000 C   0  0  3  0  0  0  0  0  0  0  0  0
   -0.3833    0.2833    0.0000 C   0  0  0  0  0  0  0  0  0  0  0  0
   -1.4833    0.7625    0.0000 C   0  0  0  0  0  0  0  0  0  0  0  0
   -0.5000    1.3208    0.0000 C   0  0  0  0  0  0  0  0  0  0  0  0
    0.7792    0.2625    0.0000 C   0  0  0  0  0  0  0  0  0  0  0  0
   -2.4625    1.3208    0.0000 N   0  0  0  0  0  0  0  0  0  0  0  0
    0.6792    1.6208    0.0000 O   0  0  0  0  0  0  0  0  0  0  0  0
   -1.8000    1.3208    0.0000 N   0  0  0  0  0  0  0  0  0  0  0  0
   -1.8000    0.1833    0.0000 O   0  0  0  0  0  0  0  0  0  0  0  0
    1.3375    0.6208    0.0000 C   0  0  0  0  0  0  0  0  0  0  0  0
    0.8167   -0.4000    0.0000 C   0  0  0  0  0  0  0  0  0  0  0  0
   -2.7833    1.9000    0.0000 C   0  0  0  0  0  0  0  0  0  0  0  0
    1.9542   -0.3375    0.0000 C   0  0  0  0  0  0  0  0  0  0  0  0
   -3.4458    1.9000    0.0000 C   0  0  0  0  0  0  0  0  0  0  0  0
   -4.7708    1.9000    0.0000 C   0  0  0  0  0  0  0  0  0  0  0  0
    1.9167    0.3208    0.0000 C   0  0  0  0  0  0  0  0  0  0  0  0
    1.4167   -0.7000    0.0000 C   0  0  0  0  0  0  0  0  0  0  0  0
    2.5375   -0.6375    0.0000 Br  0  0  0  0  0  0  0  0  0  0  0  0
   -3.7833    1.3458    0.0000 C   0  0  0  0  0  0  0  0  0  0  0  0
   -3.7833    2.4625    0.0000 C   0  0  0  0  0  0  0  0  0  0  0  0
   -4.4208    2.4625    0.0000 C   0  0  0  0  0  0  0  0  0  0  0  0
   -4.4458    1.3458    0.0000 C   0  0  0  0  0  0  0  0  0  0  0  0
   -5.4208    1.8833    0.0000 O   0  0  0  0  0  0  0  0  0  0  0  0
   -5.7458    1.3000    0.0000 C   0  0  0  0  0  0  0  0  0  0  0  0
  2  1  1  0  0  0  0
  3  4  1  0  0  0  0
  4  1  1  0  0  0  0
  5  3  1  0  0  0  0
  6  2  1  0  0  0  0
  7  1  1  0  0  0  0
  8 10  1  0  0  0  0
  9  2  2  0  0  0  0
 10  5  1  0  0  0  0
 11  5  2  0  0  0  0
 12  7  2  0  0  0  0
 13  7  1  0  0  0  0
 14  8  2  0  0  0  0
 15 19  1  0  0  0  0
 16 14  1  0  0  0  0
 17 23  1  0  0  0  0
 18 12  1  0  0  0  0
 19 13  2  0  0  0  0
 20 15  1  0  0  0  0
 21 16  2  0  0  0  0
 22 16  1  0  0  0  0
 23 22  2  0  0  0  0
 24 21  1  0  0  0  0
 25 17  1  0  0  0  0
 26 25  1  0  0  0  0
  6  3  1  0  0  0  0
 18 15  2  0  0  0  0
 17 24  2  0  0  0  0
M  END
> <#>
785

> <PLATE>
LAT010

> <ROW>
A

> <COL>
10

> <COORD>
A10

> <LATID>
LAT010A10

> <Supplier>
Chembridge

> <Suplier_CAT#>
5622157

> <Name>
Novel

> <Sec_Name>
188_H10

> <Concentration_(mM)>
2.5

> <IC50_(µM)>
10

> <Yeast_Active?>
-

> <Pubchem_CID>
1352331

$$$$
