
  -ISIS-  08130814242D

 24 26  0  0  0  0  0  0  0  0999 V2000
    0.6150    0.5790    0.0000 N   0  0  3  0  0  0  0  0  0  0  0  0
    1.3748    0.9358    0.0000 C   0  0  0  0  0  0  0  0  0  0  0  0
    0.6863   -0.2210    0.0000 C   0  0  0  0  0  0  0  0  0  0  0  0
    1.9206    0.3423    0.0000 C   0  0  0  0  0  0  0  0  0  0  0  0
    1.5062   -0.3951    0.0000 C   0  0  0  0  0  0  0  0  0  0  0  0
   -0.1053    0.9982    0.0000 C   0  0  0  0  0  0  0  0  0  0  0  0
   -2.9465    0.1526    0.0000 C   0  0  0  0  0  0  0  0  0  0  0  0
   -2.2548    0.5669    0.0000 N   0  0  0  0  0  0  0  0  0  0  0  0
   -1.5430    0.9745    0.0000 C   0  0  0  0  0  0  0  0  0  0  0  0
   -0.8202    0.5683    0.0000 C   0  0  0  0  0  0  0  0  0  0  0  0
   -2.9510   -0.6717    0.0000 C   0  0  0  0  0  0  0  0  0  0  0  0
    1.5427    1.7448    0.0000 O   0  0  0  0  0  0  0  0  0  0  0  0
    0.0952   -0.7540    0.0000 O   0  0  0  0  0  0  0  0  0  0  0  0
   -3.6875    0.5691    0.0000 C   0  0  0  0  0  0  0  0  0  0  0  0
   -1.5546    1.8128    0.0000 O   0  0  0  0  0  0  0  0  0  0  0  0
   -4.3894    0.1367    0.0000 C   0  0  0  0  0  0  0  0  0  0  0  0
   -3.6585   -1.1057    0.0000 C   0  0  0  0  0  0  0  0  0  0  0  0
   -4.3959   -0.6913    0.0000 C   0  0  0  0  0  0  0  0  0  0  0  0
   -3.6512   -1.9176    0.0000 Cl  0  0  0  0  0  0  0  0  0  0  0  0
    2.7668    0.3255    0.0000 C   0  0  0  0  0  0  0  0  0  0  0  0
    1.9082   -1.1085    0.0000 C   0  0  0  0  0  0  0  0  0  0  0  0
   -3.6912    1.3789    0.0000 C   0  0  0  0  0  0  0  0  0  0  0  0
    2.7326   -1.1130    0.0000 C   0  0  0  0  0  0  0  0  0  0  0  0
    3.1565   -0.4097    0.0000 C   0  0  0  0  0  0  0  0  0  0  0  0
  2  1  1  0  0  0  0
  3  1  1  0  0  0  0
  4  2  1  0  0  0  0
  5  3  1  0  0  0  0
  6  1  1  0  0  0  0
  7  8  1  0  0  0  0
  8  9  1  0  0  0  0
  9 10  1  0  0  0  0
 10  6  1  0  0  0  0
 11  7  2  0  0  0  0
 12  2  2  0  0  0  0
 13  3  2  0  0  0  0
 14  7  1  0  0  0  0
 15  9  2  0  0  0  0
 16 14  2  0  0  0  0
 17 11  1  0  0  0  0
 18 16  1  0  0  0  0
 19 17  1  0  0  0  0
 20  4  1  0  0  0  0
 21  5  1  0  0  0  0
 22 14  1  0  0  0  0
 23 21  2  0  0  0  0
 24 20  2  0  0  0  0
  4  5  2  0  0  0  0
 24 23  1  0  0  0  0
 17 18  2  0  0  0  0
M  END
> <#>
970

> <PLATE>
LAT013

> <ROW>
B

> <COL>
3

> <COORD>
B03

> <LATID>
LAT013B03

> <Supplier>
Chembridge

> <Suplier_CAT#>
5748472

> <Name>
Dolinamide

> <Sec_Name>
237_F10

> <Concentration_(mM)>
2.5

> <IC50_(µM)>
1

> <Yeast_Active?>
-

> <Pubchem_CID>
NULL

$$$$
