
  -ISIS-  08130814242D

 21 22  0  0  0  0  0  0  0  0999 V2000
   -2.7333    0.0625    0.0000 C   0  0  0  0  0  0  0  0  0  0  0  0
   -3.1625    0.7958    0.0000 C   0  0  0  0  0  0  0  0  0  0  0  0
   -0.0125    0.0625    0.0000 C   0  0  0  0  0  0  0  0  0  0  0  0
   -3.1625   -0.6667    0.0000 S   0  0  0  0  0  0  0  0  0  0  0  0
   -1.4208    0.8708    0.0000 N   0  0  0  0  0  0  0  0  0  0  0  0
    2.7792   -1.5542    0.0000 C   0  0  0  0  0  0  0  0  0  0  0  0
    3.7167   -1.5542    0.0000 C   0  0  0  0  0  0  0  0  0  0  0  0
   -1.8958    0.0625    0.0000 C   0  0  0  0  0  0  0  0  0  0  0  0
   -4.0208   -0.6542    0.0000 C   0  0  0  0  0  0  0  0  0  0  0  0
    2.3042   -0.7500    0.0000 C   0  0  0  0  0  0  0  0  0  0  0  0
   -4.4458    0.0625    0.0000 C   0  0  0  0  0  0  0  0  0  0  0  0
   -0.4833    0.8708    0.0000 N   0  0  0  0  0  0  0  0  0  0  0  0
    1.3792   -0.7500    0.0000 O   0  0  0  0  0  0  0  0  0  0  0  0
   -0.4833   -0.7500    0.0000 O   0  0  0  0  0  0  0  0  0  0  0  0
    0.9167    0.0625    0.0000 C   0  0  0  0  0  0  0  0  0  0  0  0
    2.7792    0.0625    0.0000 C   0  0  0  0  0  0  0  0  0  0  0  0
    4.1875   -0.7500    0.0000 C   0  0  0  0  0  0  0  0  0  0  0  0
    2.3042   -2.3667    0.0000 Cl  0  0  0  0  0  0  0  0  0  0  0  0
    3.7167    0.0625    0.0000 C   0  0  0  0  0  0  0  0  0  0  0  0
    5.1167   -0.7500    0.0000 Cl  0  0  0  0  0  0  0  0  0  0  0  0
   -2.6958    1.5958    0.0000 C   0  0  0  0  0  0  0  0  0  0  0  0
  2  1  2  0  0  0  0
  3 12  1  0  0  0  0
  4  1  1  0  0  0  0
  5  8  2  0  0  0  0
  6 10  2  0  0  0  0
  7  6  1  0  0  0  0
  8  1  1  0  0  0  0
  9  4  1  0  0  0  0
 10 13  1  0  0  0  0
 11  2  1  0  0  0  0
 12  5  1  0  0  0  0
 13 15  1  0  0  0  0
 14  3  2  0  0  0  0
 15  3  1  0  0  0  0
 16 10  1  0  0  0  0
 17 19  1  0  0  0  0
 18  6  1  0  0  0  0
 19 16  2  0  0  0  0
 20 17  1  0  0  0  0
 21  2  1  0  0  0  0
  9 11  2  0  0  0  0
 17  7  2  0  0  0  0
M  END
> <#>
677

> <PLATE>
LAT009

> <ROW>
E

> <COL>
6

> <COORD>
E06

> <LATID>
LAT009E06

> <Supplier>
Chembridge

> <Suplier_CAT#>
5546009

> <Name>
Novel

> <Sec_Name>
161_A04

> <Concentration_(mM)>
2.5

> <IC50_(µM)>
0.071

> <Yeast_Active?>
-

> <Pubchem_CID>
871492

$$$$
