
  -ISIS-  08130814242D

 27 29  0  0  0  0  0  0  0  0999 V2000
   -1.2000    1.0708    0.0000 C   0  0  0  0  0  0  0  0  0  0  0  0
   -1.2000   -0.0875    0.0000 C   0  0  0  0  0  0  0  0  0  0  0  0
   -2.2125    1.6500    0.0000 C   0  0  0  0  0  0  0  0  0  0  0  0
   -2.2125   -0.6667    0.0000 N   0  0  3  0  0  0  0  0  0  0  0  0
   -0.1958    1.6708    0.0000 C   0  0  0  0  0  0  0  0  0  0  0  0
   -3.2208    1.0708    0.0000 C   0  0  0  0  0  0  0  0  0  0  0  0
   -3.2208   -0.0875    0.0000 C   0  0  0  0  0  0  0  0  0  0  0  0
    0.8167    1.0708    0.0000 N   0  0  0  0  0  0  0  0  0  0  0  0
    1.8292    1.6708    0.0000 C   0  0  0  0  0  0  0  0  0  0  0  0
    2.8375    1.0708    0.0000 C   0  0  0  0  0  0  0  0  0  0  0  0
   -0.1958   -0.6875    0.0000 O   0  0  0  0  0  0  0  0  0  0  0  0
    3.8500    1.6708    0.0000 C   0  0  0  0  0  0  0  0  0  0  0  0
   -0.1958    2.8333    0.0000 O   0  0  0  0  0  0  0  0  0  0  0  0
   -2.2125    2.8125    0.0000 O   0  0  0  0  0  0  0  0  0  0  0  0
    1.8292    2.8333    0.0000 C   0  0  0  0  0  0  0  0  0  0  0  0
   -2.2125   -1.8292    0.0000 C   0  0  0  0  0  0  0  0  0  0  0  0
   -3.2208   -2.4042    0.0000 C   0  0  0  0  0  0  0  0  0  0  0  0
    3.8500    2.8333    0.0000 C   0  0  0  0  0  0  0  0  0  0  0  0
   -3.2208   -3.5667    0.0000 C   0  0  0  0  0  0  0  0  0  0  0  0
   -4.2208    1.6500    0.0000 C   0  0  0  0  0  0  0  0  0  0  0  0
    2.8375    3.4208    0.0000 C   0  0  0  0  0  0  0  0  0  0  0  0
    2.8375   -0.0875    0.0000 O   0  0  0  0  0  0  0  0  0  0  0  0
    4.8792    3.4208    0.0000 Cl  0  0  0  0  0  0  0  0  0  0  0  0
   -4.2208   -0.6667    0.0000 C   0  0  0  0  0  0  0  0  0  0  0  0
    1.8292   -0.6667    0.0000 C   0  0  0  0  0  0  0  0  0  0  0  0
   -5.2208    1.0708    0.0000 C   0  0  0  0  0  0  0  0  0  0  0  0
   -5.2208   -0.0875    0.0000 C   0  0  0  0  0  0  0  0  0  0  0  0
  2  1  1  0  0  0  0
  3  1  2  0  0  0  0
  4  2  1  0  0  0  0
  5  1  1  0  0  0  0
  6  3  1  0  0  0  0
  7  6  1  0  0  0  0
  8  5  1  0  0  0  0
  9  8  1  0  0  0  0
 10  9  2  0  0  0  0
 11  2  2  0  0  0  0
 12 10  1  0  0  0  0
 13  5  2  0  0  0  0
 14  3  1  0  0  0  0
 15  9  1  0  0  0  0
 16  4  1  0  0  0  0
 17 16  1  0  0  0  0
 18 21  1  0  0  0  0
 19 17  2  0  0  0  0
 20  6  2  0  0  0  0
 21 15  2  0  0  0  0
 22 10  1  0  0  0  0
 23 18  1  0  0  0  0
 24  7  2  0  0  0  0
 25 22  1  0  0  0  0
 26 20  1  0  0  0  0
 27 26  2  0  0  0  0
  4  7  1  0  0  0  0
 27 24  1  0  0  0  0
 12 18  2  0  0  0  0
M  END
> <#>
752

> <PLATE>
LAT010

> <ROW>
H

> <COL>
5

> <COORD>
H05

> <LATID>
LAT010H05

> <Supplier>
Chembridge

> <Suplier_CAT#>
5603124

> <Name>
Novel

> <Sec_Name>
182_B09

> <Concentration_(mM)>
2.5

> <IC50_(µM)>
inactive

> <Yeast_Active?>
-

> <Pubchem_CID>
NULL

$$$$
