
  -ISIS-  08130814242D

 22 23  0  0  0  0  0  0  0  0999 V2000
   -0.3625   -0.6292    0.0000 C   0  0  0  0  0  0  0  0  0  0  0  0
    0.8792    0.0958    0.0000 N   0  0  0  0  0  0  0  0  0  0  0  0
   -3.6125    0.7833    0.0000 C   0  0  0  0  0  0  0  0  0  0  0  0
    2.1000   -0.6375    0.0000 C   0  0  0  0  0  0  0  0  0  0  0  0
    0.0500    0.0958    0.0000 N   0  0  0  0  0  0  0  0  0  0  0  0
   -4.0333    0.0708    0.0000 C   0  0  0  0  0  0  0  0  0  0  0  0
   -2.8000    0.7833    0.0000 C   0  0  0  0  0  0  0  0  0  0  0  0
    0.0500   -1.3292    0.0000 O   0  0  0  0  0  0  0  0  0  0  0  0
    2.5042    0.0625    0.0000 C   0  0  0  0  0  0  0  0  0  0  0  0
    1.3042   -0.6375    0.0000 C   0  0  0  0  0  0  0  0  0  0  0  0
   -3.6208   -0.6292    0.0000 C   0  0  0  0  0  0  0  0  0  0  0  0
   -1.1958   -0.6292    0.0000 C   0  0  0  0  0  0  0  0  0  0  0  0
   -2.4000    0.0708    0.0000 C   0  0  0  0  0  0  0  0  0  0  0  0
   -1.5958    0.0708    0.0000 O   0  0  0  0  0  0  0  0  0  0  0  0
    2.1042    0.7625    0.0000 Br  0  0  0  0  0  0  0  0  0  0  0  0
   -2.8125   -0.6292    0.0000 C   0  0  0  0  0  0  0  0  0  0  0  0
    2.5042   -1.3542    0.0000 C   0  0  0  0  0  0  0  0  0  0  0  0
   -4.0333    1.5000    0.0000 C   0  0  0  0  0  0  0  0  0  0  0  0
   -4.8500    0.0708    0.0000 C   0  0  0  0  0  0  0  0  0  0  0  0
    3.3167    0.0625    0.0000 C   0  0  0  0  0  0  0  0  0  0  0  0
    3.3375   -1.3542    0.0000 C   0  0  0  0  0  0  0  0  0  0  0  0
    3.7500   -0.6375    0.0000 C   0  0  0  0  0  0  0  0  0  0  0  0
  2  5  1  0  0  0  0
  3  7  2  0  0  0  0
  4 10  1  0  0  0  0
  5  1  1  0  0  0  0
  6 11  2  0  0  0  0
  7 13  1  0  0  0  0
  8  1  2  0  0  0  0
  9  4  1  0  0  0  0
 10  2  2  0  0  0  0
 11 16  1  0  0  0  0
 12  1  1  0  0  0  0
 13 14  1  0  0  0  0
 14 12  1  0  0  0  0
 15  9  1  0  0  0  0
 16 13  2  0  0  0  0
 17  4  2  0  0  0  0
 18  3  1  0  0  0  0
 19  6  1  0  0  0  0
 20  9  2  0  0  0  0
 21 17  1  0  0  0  0
 22 21  2  0  0  0  0
  3  6  1  0  0  0  0
 22 20  1  0  0  0  0
M  END
> <#>
664

> <PLATE>
LAT009

> <ROW>
H

> <COL>
4

> <COORD>
H04

> <LATID>
LAT009H04

> <Supplier>
Chembridge

> <Suplier_CAT#>
5529007

> <Name>
Novel

> <Sec_Name>
151_H11

> <Concentration_(mM)>
2.5

> <IC50_(µM)>
7.5

> <Yeast_Active?>
-

> <Pubchem_CID>
1367989

$$$$
