
  -ISIS-  08130814242D

 15 15  0  0  0  0  0  0  0  0999 V2000
    6.0855   -1.0617    0.0000 C   0  0  0  0  0  0  0  0  0  0  0  0
    7.9605    0.0208    0.0000 N   0  0  0  0  0  0  0  0  0  0  0  0
    7.3355   -1.0617    0.0000 C   0  0  1  0  0  0  0  0  0  0  0  0
    7.9605   -2.1442    0.0000 C   0  0  0  0  0  0  0  0  0  0  0  0
    9.2105   -2.1442    0.0000 C   0  0  0  0  0  0  0  0  0  0  0  0
    9.8355   -1.0617    0.0000 C   0  0  0  0  0  0  0  0  0  0  0  0
   11.0855   -1.0617    0.0000 C   0  0  0  0  0  0  0  0  0  0  0  0
   11.7105   -2.1442    0.0000 C   0  0  0  0  0  0  0  0  0  0  0  0
   12.9605   -2.1442    0.0000 O   0  0  0  0  0  0  0  0  0  0  0  0
   11.0855   -3.2267    0.0000 C   0  0  0  0  0  0  0  0  0  0  0  0
    9.8355   -3.2267    0.0000 C   0  0  0  0  0  0  0  0  0  0  0  0
    5.4605    0.0208    0.0000 O   0  0  0  0  0  0  0  0  0  0  0  0
    5.4605   -2.1442    0.0000 O   0  0  0  0  0  0  0  0  0  0  0  0
    4.2105   -2.1442    0.0000 C   0  0  0  0  0  0  0  0  0  0  0  0
    3.5855   -3.2267    0.0000 C   0  0  0  0  0  0  0  0  0  0  0  0
  3  2  1  1  0  0  0
  1  3  1  0  0  0  0
  3  4  1  0  0  0  0
  4  5  1  0  0  0  0
  5  6  2  0  0  0  0
  6  7  1  0  0  0  0
  7  8  2  0  0  0  0
  8  9  1  0  0  0  0
  8 10  1  0  0  0  0
 10 11  2  0  0  0  0
  5 11  1  0  0  0  0
  1 12  2  0  0  0  0
  1 13  1  0  0  0  0
 14 15  1  0  0  0  0
 13 14  1  0  0  0  0
M  END
> <#>
318

> <PLATE>
LAT004

> <ROW>
F

> <COL>
11

> <COORD>
F11

> <LATID>
LAT004F11

> <Supplier>
Sigma

> <Suplier_CAT#>
T-4879

> <Name>
L-Tyrosine Ethyl Ester

> <Concentration_(mM)>
2.5

> <IC50_(µM)>
inactive

> <Yeast_Active?>
-

> <Pubchem_CID>
61328

$$$$
