
  -ISIS-  08130814242D

 20 22  0  0  0  0  0  0  0  0999 V2000
   -1.4208   -0.8875    0.0000 C   0  0  0  0  0  0  0  0  0  0  0  0
   -1.4208   -1.6292    0.0000 C   0  0  0  0  0  0  0  0  0  0  0  0
   -2.0625   -2.0042    0.0000 C   0  0  0  0  0  0  0  0  0  0  0  0
   -2.0625   -0.5042    0.0000 C   0  0  0  0  0  0  0  0  0  0  0  0
   -0.7833   -0.5042    0.0000 C   0  0  0  0  0  0  0  0  0  0  0  0
   -0.7833   -2.0042    0.0000 C   0  0  0  0  0  0  0  0  0  0  0  0
   -2.7000   -1.6292    0.0000 C   0  0  0  0  0  0  0  0  0  0  0  0
   -2.7000   -0.8875    0.0000 C   0  0  0  0  0  0  0  0  0  0  0  0
   -0.1458   -0.8875    0.0000 C   0  0  0  0  0  0  0  0  0  0  0  0
   -0.1458   -1.6292    0.0000 C   0  0  0  0  0  0  0  0  0  0  0  0
   -2.0625    0.2500    0.0000 O   0  0  0  0  0  0  0  0  0  0  0  0
   -2.0625   -2.7500    0.0000 O   0  0  0  0  0  0  0  0  0  0  0  0
   -0.7833   -2.7375    0.0000 O   0  0  0  0  0  0  0  0  0  0  0  0
   -0.7833    0.2333    0.0000 O   0  0  0  0  0  0  0  0  0  0  0  0
   -3.3458   -2.0042    0.0000 C   0  0  0  0  0  0  0  0  0  0  0  0
   -3.3458   -0.5042    0.0000 C   0  0  0  0  0  0  0  0  0  0  0  0
    0.5000   -0.5292    0.0000 C   0  0  0  0  0  0  0  0  0  0  0  0
    0.5000   -1.9875    0.0000 C   0  0  0  0  0  0  0  0  0  0  0  0
   -3.9833   -0.8875    0.0000 C   0  0  0  0  0  0  0  0  0  0  0  0
   -3.9833   -1.6292    0.0000 C   0  0  0  0  0  0  0  0  0  0  0  0
  2  1  2  0  0  0  0
  3  2  1  0  0  0  0
  4  1  1  0  0  0  0
  5  1  1  0  0  0  0
  6  2  1  0  0  0  0
  7  8  2  0  0  0  0
  8  4  1  0  0  0  0
  9  5  2  0  0  0  0
 10  9  1  0  0  0  0
 11  4  2  0  0  0  0
 12  3  2  0  0  0  0
 13  6  1  0  0  0  0
 14  5  1  0  0  0  0
 15  7  1  0  0  0  0
 16  8  1  0  0  0  0
 17  9  1  0  0  0  0
 18 10  1  0  0  0  0
 19 16  2  0  0  0  0
 20 19  1  0  0  0  0
  6 10  2  0  0  0  0
  3  7  1  0  0  0  0
 20 15  2  0  0  0  0
M  END
> <#>
1113

> <PLATE>
LAT014

> <ROW>
A

> <COL>
11

> <COORD>
A11

> <LATID>
LAT014A11

> <Supplier>
Chembridge

> <Suplier_CAT#>
5301639

> <Name>
Novel

> <Concentration_(mM)>
2.5

> <IC50_(µM)>
inactive

> <Yeast_Active?>
-

> <Pubchem_CID>
NULL

$$$$
