
  -ISIS-  08130814242D

 26 29  0  0  0  0  0  0  0  0999 V2000
   -0.0833    0.8625    0.0000 N   0  0  3  0  0  0  0  0  0  0  0  0
    0.3000    1.0708    0.0000 C   0  0  3  0  0  0  0  0  0  0  0  0
   -0.4708    1.0708    0.0000 C   0  0  0  0  0  0  0  0  0  0  0  0
   -0.0833    1.7458    0.0000 C   0  0  3  0  0  0  0  0  0  0  0  0
   -0.0708    0.4125    0.0000 C   0  0  0  0  0  0  0  0  0  0  0  0
   -0.4708    1.5125    0.0000 C   0  0  0  0  0  0  0  0  0  0  0  0
    0.3000    1.5125    0.0000 C   0  0  0  0  0  0  0  0  0  0  0  0
    0.3167    0.2625    0.0000 C   0  0  3  0  0  0  0  0  0  0  0  0
   -0.4625    0.3125    0.0000 O   0  0  0  0  0  0  0  0  0  0  0  0
    0.2167    2.0708    0.0000 C   0  0  0  0  0  0  0  0  0  0  0  0
    0.7542    0.4458    0.0000 O   0  0  0  0  0  0  0  0  0  0  0  0
    0.8375    1.2958    0.0000 C   0  0  0  0  0  0  0  0  0  0  0  0
    0.8000    0.8125    0.0000 C   0  0  0  0  0  0  0  0  0  0  0  0
   -0.5125    2.1125    0.0000 C   0  0  0  0  0  0  0  0  0  0  0  0
   -0.8500    0.8625    0.0000 C   0  0  0  0  0  0  0  0  0  0  0  0
   -0.8500    1.7458    0.0000 C   0  0  0  0  0  0  0  0  0  0  0  0
    1.1000    0.0958    0.0000 C   0  0  0  0  0  0  0  0  0  0  0  0
    0.0875    2.4958    0.0000 C   0  0  0  0  0  0  0  0  0  0  0  0
    0.6500    1.9583    0.0000 C   0  0  0  0  0  0  0  0  0  0  0  0
    0.3667   -0.2375    0.0000 C   0  0  0  0  0  0  0  0  0  0  0  0
   -1.2333    1.0708    0.0000 C   0  0  0  0  0  0  0  0  0  0  0  0
   -1.2333    1.5125    0.0000 C   0  0  0  0  0  0  0  0  0  0  0  0
    0.8500   -0.3500    0.0000 C   0  0  0  0  0  0  0  0  0  0  0  0
    0.9542    2.2958    0.0000 C   0  0  0  0  0  0  0  0  0  0  0  0
    0.3875    2.8208    0.0000 C   0  0  0  0  0  0  0  0  0  0  0  0
    0.8292    2.7208    0.0000 C   0  0  0  0  0  0  0  0  0  0  0  0
  2  1  1  0  0  0  0
  3  1  1  0  0  0  0
  4  6  1  0  0  0  0
  5  1  1  0  0  0  0
  6  3  2  0  0  0  0
  7  2  1  0  0  0  0
  8  5  1  0  0  0  0
  9  5  2  0  0  0  0
 10  4  1  0  0  0  0
 11  8  1  0  0  0  0
 12  2  1  0  0  0  0
 13  2  1  0  0  0  0
 14  4  1  0  0  0  0
 15  3  1  0  0  0  0
 16  6  1  0  0  0  0
 17 11  1  0  0  0  0
 18 10  2  0  0  0  0
 19 10  1  0  0  0  0
 20  8  1  0  0  0  0
 21 15  2  0  0  0  0
 22 21  1  0  0  0  0
 23 20  1  0  0  0  0
 24 19  2  0  0  0  0
 25 18  1  0  0  0  0
 26 24  1  0  0  0  0
  7  4  1  0  0  0  0
 17 23  1  0  0  0  0
 16 22  2  0  0  0  0
 25 26  2  0  0  0  0
M  END
> <#>
718

> <PLATE>
LAT009

> <ROW>
F

> <COL>
11

> <COORD>
F11

> <LATID>
LAT009F11

> <Supplier>
Chembridge

> <Suplier_CAT#>
5561362

> <Name>
Novel

> <Sec_Name>
171_H07

> <Concentration_(mM)>
2.5

> <IC50_(µM)>
50

> <Yeast_Active?>
-

> <Pubchem_CID>
805561

$$$$
