
  -ISIS-  08130814242D

 21 23  0  0  0  0  0  0  0  0999 V2000
    6.0667   -3.4875    0.0000 N   0  0  3  0  0  0  0  0  0  0  0  0
    7.4792   -4.0375    0.0000 N   0  0  3  0  0  0  0  0  0  0  0  0
    8.1750   -4.3042    0.0000 N   0  0  0  0  0  0  0  0  0  0  0  0
    8.2875   -5.0500    0.0000 C   0  0  0  0  0  0  0  0  0  0  0  0
    5.3750   -3.2125    0.0000 C   0  0  0  0  0  0  0  0  0  0  0  0
    6.1875   -4.2292    0.0000 C   0  0  0  0  0  0  0  0  0  0  0  0
    6.6625   -3.0167    0.0000 C   0  0  0  0  0  0  0  0  0  0  0  0
    7.3667   -3.2917    0.0000 C   0  0  0  0  0  0  0  0  0  0  0  0
    6.8917   -4.5042    0.0000 C   0  0  0  0  0  0  0  0  0  0  0  0
    7.0042   -5.2417    0.0000 N   0  0  0  0  0  0  0  0  0  0  0  0
    7.7000   -5.5167    0.0000 C   0  0  0  0  0  0  0  0  0  0  0  0
    5.2625   -2.4667    0.0000 C   0  0  0  0  0  0  0  0  0  0  0  0
    4.7875   -3.6792    0.0000 C   0  0  0  0  0  0  0  0  0  0  0  0
    3.9750   -2.6667    0.0000 C   0  0  0  0  0  0  0  0  0  0  0  0
    4.0917   -3.4125    0.0000 C   0  0  0  0  0  0  0  0  0  0  0  0
    4.5625   -2.2000    0.0000 C   0  0  0  0  0  0  0  0  0  0  0  0
    3.2792   -2.3917    0.0000 Cl  0  0  0  0  0  0  0  0  0  0  0  0
    6.4167   -5.7125    0.0000 C   0  0  0  0  0  0  0  0  0  0  0  0
    7.8125   -6.2542    0.0000 C   0  0  0  0  0  0  0  0  0  0  0  0
    6.5292   -6.4542    0.0000 C   0  0  0  0  0  0  0  0  0  0  0  0
    7.2250   -6.7250    0.0000 C   0  0  0  0  0  0  0  0  0  0  0  0
  2  8  1  0  0  0  0
  3  2  1  0  0  0  0
  4  3  2  0  0  0  0
  5  1  1  0  0  0  0
  6  1  1  0  0  0  0
  7  1  1  0  0  0  0
  8  7  1  0  0  0  0
  9  6  1  0  0  0  0
 10 11  1  0  0  0  0
 11  4  1  0  0  0  0
 12  5  1  0  0  0  0
 13  5  2  0  0  0  0
 14 15  2  0  0  0  0
 15 13  1  0  0  0  0
 16 12  2  0  0  0  0
 17 14  1  0  0  0  0
 18 10  2  0  0  0  0
 19 11  2  0  0  0  0
 20 21  2  0  0  0  0
 21 19  1  0  0  0  0
  9  2  1  0  0  0  0
 16 14  1  0  0  0  0
 18 20  1  0  0  0  0
M  END
> <#>
1020

> <PLATE>
LAT013

> <ROW>
D

> <COL>
9

> <COORD>
D09

> <LATID>
LAT013D09

> <Supplier>
Chembridge

> <Suplier_CAT#>
5784085

> <Name>
Novel

> <Sec_Name>
246_G07

> <Concentration_(mM)>
2.5

> <IC50_(µM)>
70

> <Yeast_Active?>
-

> <Pubchem_CID>
696928

$$$$
