
  -ISIS-  08130814242D

 24 26  0  0  0  0  0  0  0  0999 V2000
   -1.9333   -0.0167    0.0000 N   0  0  3  0  0  0  0  0  0  0  0  0
   -2.4708   -0.8000    0.0000 C   0  0  0  0  0  0  0  0  0  0  0  0
   -2.4708    0.7333    0.0000 C   0  0  0  0  0  0  0  0  0  0  0  0
   -3.3500    0.4333    0.0000 C   0  0  0  0  0  0  0  0  0  0  0  0
   -3.3500   -0.5000    0.0000 C   0  0  0  0  0  0  0  0  0  0  0  0
   -0.5125    0.7708    0.0000 C   0  0  0  0  0  0  0  0  0  0  0  0
   -0.9958   -0.0167    0.0000 C   0  0  3  0  0  0  0  0  0  0  0  0
    0.4167    0.7708    0.0000 N   0  0  0  0  0  0  0  0  0  0  0  0
    0.9000   -0.0500    0.0000 C   0  0  0  0  0  0  0  0  0  0  0  0
   -2.1500    1.6333    0.0000 O   0  0  0  0  0  0  0  0  0  0  0  0
   -2.1708   -1.7000    0.0000 O   0  0  0  0  0  0  0  0  0  0  0  0
   -0.9958    1.5958    0.0000 O   0  0  0  0  0  0  0  0  0  0  0  0
    2.3000   -0.8500    0.0000 C   0  0  0  0  0  0  0  0  0  0  0  0
    0.9000   -1.6792    0.0000 C   0  0  0  0  0  0  0  0  0  0  0  0
    1.8500   -0.0167    0.0000 C   0  0  0  0  0  0  0  0  0  0  0  0
    0.4167   -0.8542    0.0000 C   0  0  0  0  0  0  0  0  0  0  0  0
    1.8500   -1.6542    0.0000 C   0  0  0  0  0  0  0  0  0  0  0  0
   -4.1708    0.9125    0.0000 C   0  0  0  0  0  0  0  0  0  0  0  0
   -4.1708   -0.9792    0.0000 C   0  0  0  0  0  0  0  0  0  0  0  0
   -0.5125   -0.8542    0.0000 C   0  0  0  0  0  0  0  0  0  0  0  0
    0.4500   -2.5000    0.0000 C   0  0  0  0  0  0  0  0  0  0  0  0
    3.2500   -0.8500    0.0000 C   0  0  0  0  0  0  0  0  0  0  0  0
   -4.9958    0.4333    0.0000 C   0  0  0  0  0  0  0  0  0  0  0  0
   -4.9958   -0.5000    0.0000 C   0  0  0  0  0  0  0  0  0  0  0  0
  2  1  1  0  0  0  0
  3  1  1  0  0  0  0
  4  3  1  0  0  0  0
  5  2  1  0  0  0  0
  6  7  1  0  0  0  0
  7  1  1  0  0  0  0
  8  6  1  0  0  0  0
  9  8  1  0  0  0  0
 10  3  2  0  0  0  0
 11  2  2  0  0  0  0
 12  6  2  0  0  0  0
 13 15  1  0  0  0  0
 14 16  2  0  0  0  0
 15  9  2  0  0  0  0
 16  9  1  0  0  0  0
 17 14  1  0  0  0  0
 18  4  2  0  0  0  0
 19  5  2  0  0  0  0
 20  7  1  0  0  0  0
 21 14  1  0  0  0  0
 22 13  1  0  0  0  0
 23 18  1  0  0  0  0
 24 19  1  0  0  0  0
  4  5  1  0  0  0  0
 23 24  2  0  0  0  0
 17 13  2  0  0  0  0
M  END
> <#>
766

> <PLATE>
LAT010

> <ROW>
F

> <COL>
7

> <COORD>
F07

> <LATID>
LAT010F07

> <Supplier>
Chembridge

> <Suplier_CAT#>
5609730

> <Name>
Novel

> <Sec_Name>
184_H09

> <Concentration_(mM)>
2.5

> <IC50_(µM)>
23

> <Yeast_Active?>
-

> <Pubchem_CID>
NULL

$$$$
