
  -ISIS-  08130814242D

 31 34  0  0  0  0  0  0  0  0999 V2000
   -1.1708   -0.5042    0.0000 N   0  0  3  0  0  0  0  0  0  0  0  0
   -1.9500   -1.0292    0.0000 C   0  0  0  0  0  0  0  0  0  0  0  0
   -1.6625   -1.9500    0.0000 N   0  0  0  0  0  0  0  0  0  0  0  0
   -0.4000   -1.0667    0.0000 C   0  0  0  0  0  0  0  0  0  0  0  0
   -0.7125   -1.9500    0.0000 N   0  0  0  0  0  0  0  0  0  0  0  0
   -2.8625   -0.7875    0.0000 C   0  0  0  0  0  0  0  0  0  0  0  0
    0.5167   -0.8000    0.0000 S   0  0  0  0  0  0  0  0  0  0  0  0
    1.9792    1.2708    0.0000 N   0  0  0  0  0  0  0  0  0  0  0  0
    1.7042    0.3500    0.0000 C   0  0  0  0  0  0  0  0  0  0  0  0
   -1.1708    0.4500    0.0000 C   0  0  0  0  0  0  0  0  0  0  0  0
    2.9042    1.4833    0.0000 C   0  0  3  0  0  0  0  0  0  0  0  0
   -3.5458   -1.4292    0.0000 C   0  0  0  0  0  0  0  0  0  0  0  0
    2.3792   -0.3167    0.0000 O   0  0  0  0  0  0  0  0  0  0  0  0
    0.7792    0.1125    0.0000 C   0  0  0  0  0  0  0  0  0  0  0  0
    3.1542    2.4125    0.0000 C   0  0  0  0  0  0  0  0  0  0  0  0
   -4.4583   -1.1792    0.0000 C   0  0  0  0  0  0  0  0  0  0  0  0
   -5.1625   -1.8292    0.0000 F   0  0  0  0  0  0  0  0  0  0  0  0
   -3.0958    0.1625    0.0000 C   0  0  0  0  0  0  0  0  0  0  0  0
   -4.0000    0.4000    0.0000 C   0  0  0  0  0  0  0  0  0  0  0  0
   -0.3333    0.9208    0.0000 C   0  0  0  0  0  0  0  0  0  0  0  0
   -1.9958    0.9458    0.0000 C   0  0  0  0  0  0  0  0  0  0  0  0
    3.7000    0.9833    0.0000 C   0  0  0  0  0  0  0  0  0  0  0  0
    2.5042    3.1125    0.0000 C   0  0  0  0  0  0  0  0  0  0  0  0
    4.0875    2.6500    0.0000 C   0  0  0  0  0  0  0  0  0  0  0  0
   -4.6833   -0.2667    0.0000 C   0  0  0  0  0  0  0  0  0  0  0  0
   -1.9958    1.8708    0.0000 C   0  0  0  0  0  0  0  0  0  0  0  0
    2.7667    4.0042    0.0000 C   0  0  0  0  0  0  0  0  0  0  0  0
    4.3667    3.5625    0.0000 C   0  0  0  0  0  0  0  0  0  0  0  0
   -0.3458    1.8625    0.0000 C   0  0  0  0  0  0  0  0  0  0  0  0
    3.6875    4.2500    0.0000 C   0  0  0  0  0  0  0  0  0  0  0  0
   -1.1708    2.3458    0.0000 C   0  0  0  0  0  0  0  0  0  0  0  0
  2  1  1  0  0  0  0
  3  2  2  0  0  0  0
  4  1  1  0  0  0  0
  5  4  2  0  0  0  0
  6  2  1  0  0  0  0
  7  4  1  0  0  0  0
  8  9  1  0  0  0  0
  9 14  1  0  0  0  0
 10  1  1  0  0  0  0
 11  8  1  0  0  0  0
 12  6  2  0  0  0  0
 13  9  2  0  0  0  0
 14  7  1  0  0  0  0
 15 11  1  0  0  0  0
 16 12  1  0  0  0  0
 17 16  1  0  0  0  0
 18  6  1  0  0  0  0
 19 18  2  0  0  0  0
 20 10  1  0  0  0  0
 21 10  2  0  0  0  0
 22 11  1  0  0  0  0
 23 15  2  0  0  0  0
 24 15  1  0  0  0  0
 25 19  1  0  0  0  0
 26 21  1  0  0  0  0
 27 23  1  0  0  0  0
 28 24  2  0  0  0  0
 29 20  2  0  0  0  0
 30 28  1  0  0  0  0
 31 26  2  0  0  0  0
  5  3  1  0  0  0  0
 31 29  1  0  0  0  0
 25 16  2  0  0  0  0
 27 30  2  0  0  0  0
M  END
> <#>
845

> <PLATE>
LAT011

> <ROW>
E

> <COL>
7

> <COORD>
E07

> <LATID>
LAT011E07

> <Supplier>
Chembridge

> <Suplier_CAT#>
5647229

> <Name>
Eroonazole

> <Sec_Name>
196_B11

> <Concentration_(mM)>
2.5

> <IC50_(µM)>
19

> <Yeast_Active?>
-

> <Pubchem_CID>
1102252

$$$$
