
  -ISIS-  08130814242D

 19 20  0  0  0  0  0  0  0  0999 V2000
   -0.4208    0.2625    0.0000 C   0  0  0  0  0  0  0  0  0  0  0  0
    0.2000   -0.0792    0.0000 C   0  0  0  0  0  0  0  0  0  0  0  0
    0.8167    0.2625    0.0000 C   0  0  0  0  0  0  0  0  0  0  0  0
   -1.0458   -0.0917    0.0000 C   0  0  0  0  0  0  0  0  0  0  0  0
    0.8167    0.9833    0.0000 C   0  0  0  0  0  0  0  0  0  0  0  0
   -1.0458   -0.8167    0.0000 C   0  0  0  0  0  0  0  0  0  0  0  0
   -1.6625   -1.1542    0.0000 C   0  0  0  0  0  0  0  0  0  0  0  0
   -2.2833   -0.8000    0.0000 C   0  0  0  0  0  0  0  0  0  0  0  0
   -0.4458    0.9833    0.0000 O   0  0  0  0  0  0  0  0  0  0  0  0
   -1.6625    0.2458    0.0000 C   0  0  0  0  0  0  0  0  0  0  0  0
    0.2167    1.3458    0.0000 O   0  0  0  0  0  0  0  0  0  0  0  0
   -2.2833   -0.0917    0.0000 C   0  0  0  0  0  0  0  0  0  0  0  0
    1.4375    1.3458    0.0000 O   0  0  0  0  0  0  0  0  0  0  0  0
   -2.9000   -1.1375    0.0000 Cl  0  0  0  0  0  0  0  0  0  0  0  0
    0.1792   -0.7792    0.0000 C   0  0  0  0  0  0  0  0  0  0  0  0
    1.4167   -0.0917    0.0000 C   0  0  0  0  0  0  0  0  0  0  0  0
   -1.6625   -1.8542    0.0000 C   0  0  0  0  0  0  0  0  0  0  0  0
    0.8000   -1.1375    0.0000 C   0  0  0  0  0  0  0  0  0  0  0  0
    1.4167   -0.8000    0.0000 C   0  0  0  0  0  0  0  0  0  0  0  0
  2  1  1  0  0  0  0
  3  2  2  0  0  0  0
  4  1  1  0  0  0  0
  5  3  1  0  0  0  0
  6  4  1  0  0  0  0
  7  6  2  0  0  0  0
  8 12  2  0  0  0  0
  9  1  2  0  0  0  0
 10  4  2  0  0  0  0
 11  5  2  0  0  0  0
 12 10  1  0  0  0  0
 13  5  1  0  0  0  0
 14  8  1  0  0  0  0
 15  2  1  0  0  0  0
 16  3  1  0  0  0  0
 17  7  1  0  0  0  0
 18 15  2  0  0  0  0
 19 18  1  0  0  0  0
  7  8  1  0  0  0  0
 19 16  2  0  0  0  0
M  END
> <#>
836

> <PLATE>
LAT011

> <ROW>
D

> <COL>
6

> <COORD>
D06

> <LATID>
LAT011D06

> <Supplier>
Chembridge

> <Suplier_CAT#>
5633946

> <Name>
Novel

> <Sec_Name>
193_A02

> <Concentration_(mM)>
2.5

> <IC50_(µM)>
53

> <Yeast_Active?>
-

> <Pubchem_CID>
872837

$$$$
