
  -ISIS-  08130814242D

 24 27  0  0  0  0  0  0  0  0999 V2000
    5.8167   -7.4417    0.0000 C   0  0  3  0  0  0  0  0  0  0  0  0
    6.3000   -6.7750    0.0000 O   0  0  0  0  0  0  0  0  0  0  0  0
    5.8167   -6.1125    0.0000 C   0  0  0  0  0  0  0  0  0  0  0  0
    5.0292   -7.1917    0.0000 C   0  0  0  0  0  0  0  0  0  0  0  0
    5.0292   -6.3667    0.0000 C   0  0  0  0  0  0  0  0  0  0  0  0
    5.5625   -8.2292    0.0000 C   0  0  0  0  0  0  0  0  0  0  0  0
    6.6292   -7.6875    0.0000 C   0  0  0  0  0  0  0  0  0  0  0  0
    6.0667   -5.3250    0.0000 O   0  0  0  0  0  0  0  0  0  0  0  0
    7.2625   -7.1625    0.0000 C   0  0  0  0  0  0  0  0  0  0  0  0
    6.7750   -8.4917    0.0000 C   0  0  0  0  0  0  0  0  0  0  0  0
    4.7500   -8.4042    0.0000 C   0  0  0  0  0  0  0  0  0  0  0  0
    6.1125   -8.8417    0.0000 C   0  0  0  0  0  0  0  0  0  0  0  0
    5.0500   -9.8042    0.0000 C   0  0  0  0  0  0  0  0  0  0  0  0
    8.1792   -8.2500    0.0000 C   0  0  0  0  0  0  0  0  0  0  0  0
    4.3167   -7.6042    0.0000 C   0  0  0  0  0  0  0  0  0  0  0  0
    4.4917   -9.1875    0.0000 C   0  0  0  0  0  0  0  0  0  0  0  0
    8.0292   -7.4417    0.0000 C   0  0  0  0  0  0  0  0  0  0  0  0
    5.8625   -9.6250    0.0000 C   0  0  0  0  0  0  0  0  0  0  0  0
    7.5417   -8.7792    0.0000 C   0  0  0  0  0  0  0  0  0  0  0  0
    8.9667   -8.5250    0.0000 O   0  0  0  0  0  0  0  0  0  0  0  0
    4.8292  -10.6000    0.0000 O   0  0  0  0  0  0  0  0  0  0  0  0
    4.3167   -5.9542    0.0000 C   0  0  0  0  0  0  0  0  0  0  0  0
    3.6042   -7.1917    0.0000 C   0  0  0  0  0  0  0  0  0  0  0  0
    3.6042   -6.3667    0.0000 C   0  0  0  0  0  0  0  0  0  0  0  0
  2  1  1  0  0  0  0
  3  2  1  0  0  0  0
  4  1  1  0  0  0  0
  5  4  1  0  0  0  0
  6  1  1  0  0  0  0
  7  1  1  0  0  0  0
  8  3  2  0  0  0  0
  9  7  1  0  0  0  0
 10  7  2  0  0  0  0
 11  6  2  0  0  0  0
 12  6  1  0  0  0  0
 13 18  1  0  0  0  0
 14 19  2  0  0  0  0
 15  4  2  0  0  0  0
 16 11  1  0  0  0  0
 17  9  2  0  0  0  0
 18 12  2  0  0  0  0
 19 10  1  0  0  0  0
 20 14  1  0  0  0  0
 21 13  1  0  0  0  0
 22  5  2  0  0  0  0
 23 15  1  0  0  0  0
 24 23  2  0  0  0  0
  3  5  1  0  0  0  0
 14 17  1  0  0  0  0
 13 16  2  0  0  0  0
 24 22  1  0  0  0  0
M  END
> <#>
110

> <PLATE>
LAT002

> <ROW>
F

> <COL>
5

> <COORD>
F05

> <LATID>
LAT002F05

> <Supplier>
Microsource

> <Suplier_CAT#>
01500480

> <Name>
Phenolphthalein

> <Concentration_(mM)>
2.5

> <IC50_(µM)>
24

> <Yeast_Active?>
-

> <Pubchem_CID>
4764

> <Description>
Cathartic

$$$$
