
  -ISIS-  08130814242D

 28 32  0  0  0  0  0  0  0  0999 V2000
    2.0792   -2.9042    0.0000 C   0  0  3  0  0  0  0  0  0  0  0  0
    4.6875   -1.4042    0.0000 C   0  0  3  0  0  0  0  0  0  0  0  0
    2.0792   -3.9042    0.0000 C   0  0  0  0  0  0  0  0  0  0  0  0
    2.9500   -2.4042    0.0000 C   0  0  2  0  0  0  0  0  0  0  0  0
    0.3500   -2.9042    0.0000 C   0  0  0  0  0  0  0  0  0  0  0  0
    4.6875   -2.4042    0.0000 C   0  0  2  0  0  0  0  0  0  0  0  0
    0.3500   -3.9042    0.0000 C   0  0  0  0  0  0  0  0  0  0  0  0
    3.8167   -2.9042    0.0000 C   0  0  2  0  0  0  0  0  0  0  0  0
    1.2167   -4.4042    0.0000 C   0  0  0  0  0  0  0  0  0  0  0  0
    1.2167   -2.4042    0.0000 C   0  0  0  0  0  0  0  0  0  0  0  0
    5.5542   -0.9042    0.0000 C   0  0  2  0  0  0  0  0  0  0  0  0
   -1.3833   -2.9042    0.0000 N   0  0  0  0  0  0  0  0  0  0  0  0
    6.5167   -0.6417    0.0000 C   0  0  0  0  0  0  0  0  0  0  0  0
    3.8167   -0.9042    0.0000 C   0  0  0  0  0  0  0  0  0  0  0  0
   -1.3833   -3.9042    0.0000 O   0  0  0  0  0  0  0  0  0  0  0  0
    2.9500   -1.4042    0.0000 C   0  0  0  0  0  0  0  0  0  0  0  0
    3.8167   -3.9042    0.0000 C   0  0  0  0  0  0  0  0  0  0  0  0
    6.4250   -2.4042    0.0000 C   0  0  0  0  0  0  0  0  0  0  0  0
    7.5167   -0.6417    0.0000 C   0  0  0  0  0  0  0  0  0  0  0  0
    2.9500   -4.4042    0.0000 C   0  0  0  0  0  0  0  0  0  0  0  0
   -0.5125   -2.4042    0.0000 C   0  0  0  0  0  0  0  0  0  0  0  0
    6.4250   -1.4042    0.0000 C   0  0  0  0  0  0  0  0  0  0  0  0
    5.5542    0.0958    0.0000 O   0  0  0  0  0  0  0  0  0  0  0  0
    2.0792   -1.9042    0.0000 C   0  0  0  0  0  0  0  0  0  0  0  0
    4.6875   -0.4042    0.0000 C   0  0  0  0  0  0  0  0  0  0  0  0
    3.8167   -1.9042    0.0000 H   0  0  0  0  0  0  0  0  0  0  0  0
    2.9500   -3.4042    0.0000 H   0  0  0  0  0  0  0  0  0  0  0  0
    4.6875   -3.4042    0.0000 H   0  0  0  0  0  0  0  0  0  0  0  0
  2 14  1  0  0  0  0
  3  1  1  0  0  0  0
  4  1  1  0  0  0  0
  5 10  1  0  0  0  0
  6  8  1  0  0  0  0
  7  5  2  0  0  0  0
  8  4  1  0  0  0  0
  9  3  2  0  0  0  0
 10  1  1  0  0  0  0
 11  2  1  0  0  0  0
 12 21  2  0  0  0  0
 11 13  1  6  0  0  0
 14 16  1  0  0  0  0
 15  7  1  0  0  0  0
 16  4  1  0  0  0  0
 17  8  1  0  0  0  0
 18  6  1  0  0  0  0
 19 13  3  0  0  0  0
 20  3  1  0  0  0  0
 21  5  1  0  0  0  0
 22 18  1  0  0  0  0
 11 23  1  1  0  0  0
 24  1  1  0  0  0  0
 25  2  1  0  0  0  0
  8 26  1  1  0  0  0
  4 27  1  6  0  0  0
  6 28  1  6  0  0  0
 20 17  1  0  0  0  0
  7  9  1  0  0  0  0
  6  2  1  0  0  0  0
 12 15  1  0  0  0  0
 22 11  1  0  0  0  0
M  END
> <#>
225

> <PLATE>
LAT003

> <ROW>
A

> <COL>
10

> <COORD>
A10

> <LATID>
LAT003A10

> <Supplier>
Sigma

> <Suplier_CAT#>
D 8399

> <Name>
Danazol

> <Concentration_(mM)>
2.5

> <IC50_(µM)>
31

> <Yeast_Active?>
-

> <Pubchem_CID>
2949

> <Description>
Anterior pituitary suppressant; weak androgen

$$$$
