
  -ISIS-  08130814242D

 24 26  0  0  0  0  0  0  0  0999 V2000
    2.9500   -1.5542    0.0000 C   0  0  0  0  0  0  0  0  0  0  0  0
    3.6000   -2.6792    0.0000 N   0  0  0  0  0  0  0  0  0  0  0  0
    1.6500   -1.5500    0.0000 N   0  0  0  0  0  0  0  0  0  0  0  0
    3.6000   -1.9292    0.0000 N   0  0  0  0  0  0  0  0  0  0  0  0
    5.5500   -1.5542    0.0000 C   0  0  0  0  0  0  0  0  0  0  0  0
    1.0000   -1.9292    0.0000 C   0  0  0  0  0  0  0  0  0  0  0  0
    2.9500   -0.8042    0.0000 O   0  0  0  0  0  0  0  0  0  0  0  0
    4.9000   -1.9292    0.0000 C   0  0  0  0  0  0  0  0  0  0  0  0
    2.3000   -1.9292    0.0000 C   0  0  0  0  0  0  0  0  0  0  0  0
    6.1875   -1.9292    0.0000 C   0  0  0  0  0  0  0  0  0  0  0  0
    0.3375   -1.5500    0.0000 C   0  0  0  0  0  0  0  0  0  0  0  0
    4.2375   -3.0542    0.0000 C   0  0  0  0  0  0  0  0  0  0  0  0
    6.1875   -2.6792    0.0000 C   0  0  0  0  0  0  0  0  0  0  0  0
    4.8875   -2.6792    0.0000 C   0  0  0  0  0  0  0  0  0  0  0  0
    5.5375   -3.0542    0.0000 C   0  0  0  0  0  0  0  0  0  0  0  0
    5.5500   -0.8042    0.0000 C   0  0  0  0  0  0  0  0  0  0  0  0
    1.0000   -2.6792    0.0000 C   0  0  0  0  0  0  0  0  0  0  0  0
    0.3375   -0.8000    0.0000 C   0  0  0  0  0  0  0  0  0  0  0  0
   -0.3000   -1.9292    0.0000 C   0  0  0  0  0  0  0  0  0  0  0  0
    6.8375   -1.5542    0.0000 C   0  0  0  0  0  0  0  0  0  0  0  0
    6.2000   -0.4292    0.0000 C   0  0  0  0  0  0  0  0  0  0  0  0
   -0.3000   -2.6792    0.0000 C   0  0  0  0  0  0  0  0  0  0  0  0
    0.3375   -3.0542    0.0000 C   0  0  0  0  0  0  0  0  0  0  0  0
    6.8500   -0.8042    0.0000 C   0  0  0  0  0  0  0  0  0  0  0  0
  2  4  1  0  0  0  0
  3  9  1  0  0  0  0
  4  1  1  0  0  0  0
  5  8  1  0  0  0  0
  6  3  1  0  0  0  0
  7  1  2  0  0  0  0
  8 14  2  0  0  0  0
  9  1  1  0  0  0  0
 10 13  1  0  0  0  0
 11  6  1  0  0  0  0
 12  2  2  0  0  0  0
 13 15  2  0  0  0  0
 14 12  1  0  0  0  0
 15 14  1  0  0  0  0
 16  5  2  0  0  0  0
 17  6  2  0  0  0  0
 18 11  1  0  0  0  0
 19 11  2  0  0  0  0
 20 10  2  0  0  0  0
 21 16  1  0  0  0  0
 22 23  2  0  0  0  0
 23 17  1  0  0  0  0
 24 20  1  0  0  0  0
 22 19  1  0  0  0  0
  5 10  1  0  0  0  0
 21 24  2  0  0  0  0
M  END
> <#>
625

> <PLATE>
LAT008

> <ROW>
A

> <COL>
10

> <COORD>
A10

> <LATID>
LAT008A10

> <Supplier>
Chembridge

> <Suplier_CAT#>
5538562

> <Name>
Novel

> <Sec_Name>
157_A04

> <Concentration_(mM)>
2.5

> <IC50_(µM)>
10

> <Yeast_Active?>
-

> <Pubchem_CID>
684019

$$$$
