
  -ISIS-  08130814242D

 14 14  0  0  0  0  0  0  0  0999 V2000
   10.0450   -3.2196    0.0000 C   0  0  0  0  0  0  0  0  0  0  0  0
    8.9625   -3.8446    0.0000 C   0  0  0  0  0  0  0  0  0  0  0  0
    7.8799   -3.2196    0.0000 N   0  0  0  0  0  0  0  0  0  0  0  0
    6.7974   -3.8446    0.0000 C   0  0  0  0  0  0  0  0  0  0  0  0
    6.7974   -5.0946    0.0000 O   0  0  0  0  0  0  0  0  0  0  0  0
    5.7149   -3.2196    0.0000 C   0  0  0  0  0  0  0  0  0  0  0  0
    4.6323   -3.8446    0.0000 C   0  0  0  0  0  0  0  0  0  0  0  0
    3.5498   -3.2196    0.0000 C   0  0  0  0  0  0  0  0  0  0  0  0
    3.5498   -1.9696    0.0000 C   0  0  0  0  0  0  0  0  0  0  0  0
    4.6323   -1.3446    0.0000 C   0  0  0  0  0  0  0  0  0  0  0  0
    5.7149   -1.9696    0.0000 C   0  0  0  0  0  0  0  0  0  0  0  0
   10.0450   -1.9696    0.0000 O   0  0  0  0  0  0  0  0  0  0  0  0
   11.1275   -3.8446    0.0000 O   0  0  0  0  0  0  0  0  0  0  0  0
    2.4673   -1.3446    0.0000 N   0  0  0  0  0  0  0  0  0  0  0  0
  1  2  1  0  0  0  0
  2  3  1  0  0  0  0
  3  4  1  0  0  0  0
  4  5  2  0  0  0  0
  4  6  1  0  0  0  0
  6  7  1  0  0  0  0
  7  8  2  0  0  0  0
  8  9  1  0  0  0  0
  9 10  2  0  0  0  0
 10 11  1  0  0  0  0
  6 11  2  0  0  0  0
  1 12  2  0  0  0  0
  1 13  1  0  0  0  0
  9 14  1  0  0  0  0
M  END
> <#>
309

> <PLATE>
LAT004

> <ROW>
E

> <COL>
10

> <COORD>
E10

> <LATID>
LAT004E10

> <Supplier>
K+K Labs

> <Suplier_CAT#>
Aminohippuric_Acid

> <Name>
P-Aminohippuric Acid

> <Concentration_(mM)>
2.5

> <IC50_(µM)>
inactive

> <Yeast_Active?>
-

> <Pubchem_CID>
2148

$$$$
