
  -ISIS-  08130814242D

 19 21  0  0  0  0  0  0  0  0999 V2000
    6.5792   -7.5417    0.0000 N   0  0  3  0  0  0  0  0  0  0  0  0
    6.5625   -8.3667    0.0000 C   0  0  1  0  0  0  0  0  0  0  0  0
    5.7917   -7.2875    0.0000 C   0  0  0  0  0  0  0  0  0  0  0  0
    5.7917   -6.4625    0.0000 C   0  0  0  0  0  0  0  0  0  0  0  0
    6.5792   -6.2125    0.0000 N   0  0  0  0  0  0  0  0  0  0  0  0
    7.2125   -8.8500    0.0000 C   0  0  2  0  0  0  0  0  0  0  0  0
    7.0625   -6.8750    0.0000 C   0  0  0  0  0  0  0  0  0  0  0  0
    5.8667   -8.8500    0.0000 O   0  0  0  0  0  0  0  0  0  0  0  0
    6.9417   -9.6375    0.0000 C   0  0  1  0  0  0  0  0  0  0  0  0
    6.1125   -9.6375    0.0000 C   0  0  1  0  0  0  0  0  0  0  0  0
    5.0750   -6.0500    0.0000 C   0  0  0  0  0  0  0  0  0  0  0  0
    5.0750   -7.7042    0.0000 N   0  0  0  0  0  0  0  0  0  0  0  0
    4.3625   -6.4667    0.0000 N   0  0  0  0  0  0  0  0  0  0  0  0
    4.3625   -7.2917    0.0000 C   0  0  0  0  0  0  0  0  0  0  0  0
    8.0000   -8.6125    0.0000 O   0  0  0  0  0  0  0  0  0  0  0  0
    5.0667   -5.2250    0.0000 N   0  0  0  0  0  0  0  0  0  0  0  0
    7.4167  -10.3125    0.0000 O   0  0  0  0  0  0  0  0  0  0  0  0
    5.6292  -10.2917    0.0000 C   0  0  0  0  0  0  0  0  0  0  0  0
    6.0875  -10.9750    0.0000 O   0  0  0  0  0  0  0  0  0  0  0  0
  2  1  1  1  0  0  0
  3  1  1  0  0  0  0
  4  3  1  0  0  0  0
  5  7  2  0  0  0  0
  6  2  1  0  0  0  0
  7  1  1  0  0  0  0
  8  2  1  0  0  0  0
  9  6  1  0  0  0  0
 10  8  1  0  0  0  0
 11  4  2  0  0  0  0
 12  3  2  0  0  0  0
 13 14  2  0  0  0  0
 14 12  1  0  0  0  0
  6 15  1  1  0  0  0
 16 11  1  0  0  0  0
  9 17  1  6  0  0  0
 10 18  1  1  0  0  0
 19 18  1  0  0  0  0
  4  5  1  0  0  0  0
  9 10  1  0  0  0  0
 13 11  1  0  0  0  0
M  END
> <#>
135

> <PLATE>
LAT002

> <ROW>
G

> <COL>
8

> <COORD>
G08

> <LATID>
LAT002G08

> <Supplier>
Microsource

> <Suplier_CAT#>
01500609

> <Name>
Vidarabine

> <Concentration_(mM)>
2.5

> <IC50_(µM)>
21

> <Yeast_Active?>
-

> <Pubchem_CID>
191

> <Description>
Antiviral

$$$$
