
  -ISIS-  08130814242D

 62 68  0  0  0  0  0  0  0  0999 V2000
    8.3167   -1.8917    0.0000 C   0  0  2  0  0  0  0  0  0  0  0  0
    8.6375   -4.4917    0.0000 C   0  0  1  0  0  0  0  0  0  0  0  0
    4.9542   -3.2750    0.0000 C   0  0  2  0  0  0  0  0  0  0  0  0
    7.7292   -3.2875    0.0000 C   0  0  3  0  0  0  0  0  0  0  0  0
    4.9542   -0.5167    0.0000 C   0  0  0  0  0  0  0  0  0  0  0  0
    5.7542   -1.8917    0.0000 C   0  0  1  0  0  0  0  0  0  0  0  0
    7.7292   -0.5167    0.0000 C   0  0  0  0  0  0  0  0  0  0  0  0
    6.3375   -3.8792    0.0000 C   0  0  2  0  0  0  0  0  0  0  0  0
    6.3417    0.0708    0.0000 C   0  0  2  0  0  0  0  0  0  0  0  0
    3.3667   -0.5167    0.0000 C   0  0  0  0  0  0  0  0  0  0  0  0
    3.3667   -3.2750    0.0000 C   0  0  0  0  0  0  0  0  0  0  0  0
    2.5750   -1.8917    0.0000 C   0  0  2  0  0  0  0  0  0  0  0  0
    0.7042   -1.3917    0.0000 C   0  0  0  0  0  0  0  0  0  0  0  0
    9.8250   -1.7125    0.0000 C   0  0  2  0  0  0  0  0  0  0  0  0
   -0.1583   -1.8917    0.0000 C   0  0  1  0  0  0  0  0  0  0  0  0
   10.1375   -4.3125    0.0000 C   0  0  1  0  0  0  0  0  0  0  0  0
   -1.8958   -1.8917    0.0000 N   0  0  0  0  0  0  0  0  0  0  0  0
    5.7250   -4.6667    0.0000 O   0  0  0  0  0  0  0  0  0  0  0  0
   -1.0250   -1.3917    0.0000 C   0  0  1  0  0  0  0  0  0  0  0  0
   -2.7500   -1.3917    0.0000 C   0  0  0  0  0  0  0  0  0  0  0  0
    5.0167   -5.3667    0.0000 C   0  0  0  0  0  0  0  0  0  0  0  0
    1.5750   -1.8917    0.0000 O   0  0  0  0  0  0  0  0  0  0  0  0
    9.1667   -5.3375    0.0000 C   0  0  0  0  0  0  0  0  0  0  0  0
   10.7292   -2.9167    0.0000 C   0  0  0  0  0  0  0  0  0  0  0  0
    7.9542   -5.2292    0.0000 O   0  0  0  0  0  0  0  0  0  0  0  0
   10.7500   -5.1000    0.0000 O   0  0  0  0  0  0  0  0  0  0  0  0
    6.2542    0.8583    0.0000 O   0  0  0  0  0  0  0  0  0  0  0  0
    7.5167   -6.1292    0.0000 C   0  0  0  0  0  0  0  0  0  0  0  0
    5.0542    1.5708    0.0000 C   0  0  0  0  0  0  0  0  0  0  0  0
    8.4375    0.1875    0.0000 O   0  0  0  0  0  0  0  0  0  0  0  0
    0.7042   -0.3917    0.0000 O   0  0  0  0  0  0  0  0  0  0  0  0
   -2.7500   -0.3917    0.0000 O   0  0  0  0  0  0  0  0  0  0  0  0
    5.0167   -6.3667    0.0000 O   0  0  0  0  0  0  0  0  0  0  0  0
    4.2542   -3.9917    0.0000 O   0  0  0  0  0  0  0  0  0  0  0  0
   -3.6208   -1.8917    0.0000 C   0  0  0  0  0  0  0  0  0  0  0  0
    4.0417   -5.1167    0.0000 C   0  0  0  0  0  0  0  0  0  0  0  0
   -1.0250   -0.3917    0.0000 C   0  0  0  0  0  0  0  0  0  0  0  0
    5.0542    2.5625    0.0000 O   0  0  0  0  0  0  0  0  0  0  0  0
    6.5167   -6.1292    0.0000 O   0  0  0  0  0  0  0  0  0  0  0  0
    9.0042   -1.1667    0.0000 C   0  0  0  0  0  0  0  0  0  0  0  0
   -0.1583   -2.8917    0.0000 O   0  0  0  0  0  0  0  0  0  0  0  0
   10.5542   -1.0292    0.0000 O   0  0  0  0  0  0  0  0  0  0  0  0
    6.4750   -1.2042    0.0000 C   0  0  0  0  0  0  0  0  0  0  0  0
    6.4542   -2.6042    0.0000 C   0  0  0  0  0  0  0  0  0  0  0  0
    2.6750    0.1958    0.0000 C   0  0  0  0  0  0  0  0  0  0  0  0
    8.3792   -6.6417    0.0000 C   0  0  0  0  0  0  0  0  0  0  0  0
    4.1292    1.2083    0.0000 C   0  0  0  0  0  0  0  0  0  0  0  0
    3.5542   -5.9792    0.0000 C   0  0  0  0  0  0  0  0  0  0  0  0
    3.5500   -4.2500    0.0000 C   0  0  0  0  0  0  0  0  0  0  0  0
   -4.4833   -1.3917    0.0000 C   0  0  0  0  0  0  0  0  0  0  0  0
   -3.6125   -2.8917    0.0000 C   0  0  0  0  0  0  0  0  0  0  0  0
   -0.1583    0.1000    0.0000 C   0  0  0  0  0  0  0  0  0  0  0  0
   -1.8958    0.0958    0.0000 C   0  0  0  0  0  0  0  0  0  0  0  0
   -4.4750   -3.3917    0.0000 C   0  0  0  0  0  0  0  0  0  0  0  0
    2.5542   -5.9875    0.0000 C   0  0  0  0  0  0  0  0  0  0  0  0
    2.5417   -4.2500    0.0000 C   0  0  0  0  0  0  0  0  0  0  0  0
   -0.1583    1.1000    0.0000 C   0  0  0  0  0  0  0  0  0  0  0  0
   -1.8958    1.0958    0.0000 C   0  0  0  0  0  0  0  0  0  0  0  0
   -5.3458   -1.8917    0.0000 C   0  0  0  0  0  0  0  0  0  0  0  0
   -1.0250    1.6000    0.0000 C   0  0  0  0  0  0  0  0  0  0  0  0
    2.0417   -5.1167    0.0000 C   0  0  0  0  0  0  0  0  0  0  0  0
   -5.3458   -2.8917    0.0000 C   0  0  0  0  0  0  0  0  0  0  0  0
  2  4  1  0  0  0  0
  3  8  1  0  0  0  0
  4  1  1  0  0  0  0
  5  9  1  0  0  0  0
  6  5  1  0  0  0  0
  7  1  1  0  0  0  0
  8  4  1  0  0  0  0
  9  7  1  0  0  0  0
 10  5  2  0  0  0  0
 11  3  1  0  0  0  0
 12 10  1  0  0  0  0
 13 22  1  0  0  0  0
 14  1  1  0  0  0  0
 15 13  1  0  0  0  0
 16 24  1  0  0  0  0
 17 19  1  0  0  0  0
  8 18  1  6  0  0  0
 19 15  1  0  0  0  0
 20 17  1  0  0  0  0
 21 18  1  0  0  0  0
 12 22  1  6  0  0  0
  2 23  1  1  0  0  0
 24 14  1  0  0  0  0
  2 25  1  6  0  0  0
 16 26  1  1  0  0  0
  9 27  1  1  0  0  0
 28 25  1  0  0  0  0
 29 27  1  0  0  0  0
 30  7  2  0  0  0  0
 31 13  2  0  0  0  0
 32 20  2  0  0  0  0
 33 21  2  0  0  0  0
  3 34  1  1  0  0  0
 35 20  1  0  0  0  0
 36 21  1  0  0  0  0
 19 37  1  1  0  0  0
 38 29  2  0  0  0  0
 39 28  2  0  0  0  0
  1 40  1  1  0  0  0
 15 41  1  6  0  0  0
 14 42  1  1  0  0  0
  6 43  1  1  0  0  0
  6 44  1  6  0  0  0
 45 10  1  0  0  0  0
 46 28  1  0  0  0  0
 47 29  1  0  0  0  0
 48 36  1  0  0  0  0
 49 36  2  0  0  0  0
 50 35  2  0  0  0  0
 51 35  1  0  0  0  0
 52 37  2  0  0  0  0
 53 37  1  0  0  0  0
 54 51  2  0  0  0  0
 55 48  2  0  0  0  0
 56 49  1  0  0  0  0
 57 52  1  0  0  0  0
 58 53  2  0  0  0  0
 59 50  1  0  0  0  0
 60 58  1  0  0  0  0
 61 56  2  0  0  0  0
 62 54  1  0  0  0  0
  2 16  1  0  0  0  0
 26 23  1  0  0  0  0
  3  6  1  0  0  0  0
 12 11  1  0  0  0  0
 61 55  1  0  0  0  0
 57 60  2  0  0  0  0
 59 62  2  0  0  0  0
M  END
> <#>
283

> <PLATE>
LAT004

> <ROW>
C

> <COL>
7

> <COORD>
C07

> <LATID>
LAT004C07

> <Supplier>
Sigma

> <Suplier_CAT#>
T 7402

> <Name>
Taxol

> <Concentration_(mM)>
2.5

> <IC50_(µM)>
0.43

> <Yeast_Active?>
-

> <Pubchem_CID>
4666

> <Description>
Antitumor agent; promotes assembly of microtubules and inhibits tubulin disassembly process

$$$$
