
  -ISIS-  08130814242D

 18 18  0  0  0  0  0  0  0  0999 V2000
    2.9689    1.8209    0.0000 C   0  0  0  0  0  0  0  0  0  0  0  0
    1.7189    1.8209    0.0000 O   0  0  0  0  0  0  0  0  0  0  0  0
    1.0939    0.7384    0.0000 C   0  0  0  0  0  0  0  0  0  0  0  0
    1.7189   -0.3442    0.0000 O   0  0  0  0  0  0  0  0  0  0  0  0
   -0.1561    0.7384    0.0000 C   0  0  0  0  0  0  0  0  0  0  0  0
   -0.7811   -0.3442    0.0000 C   0  0  0  0  0  0  0  0  0  0  0  0
   -2.0311   -0.3442    0.0000 C   0  0  0  0  0  0  0  0  0  0  0  0
   -2.6561    0.7384    0.0000 C   0  0  0  0  0  0  0  0  0  0  0  0
   -2.0311    1.8209    0.0000 C   0  0  0  0  0  0  0  0  0  0  0  0
   -0.7811    1.8209    0.0000 C   0  0  0  0  0  0  0  0  0  0  0  0
   -0.1561    2.9034    0.0000 Cl  0  0  0  0  0  0  0  0  0  0  0  0
   -2.6561    2.9034    0.0000 Cl  0  0  0  0  0  0  0  0  0  0  0  0
   -3.9061    0.7384    0.0000 C   0  0  0  0  0  0  0  0  0  0  0  0
   -4.5311    1.8209    0.0000 O   0  0  0  0  0  0  0  0  0  0  0  0
   -4.5311   -0.3442    0.0000 O   0  0  0  0  0  0  0  0  0  0  0  0
   -3.9061   -1.4267    0.0000 C   0  0  0  0  0  0  0  0  0  0  0  0
   -2.6561   -1.4267    0.0000 Cl  0  0  0  0  0  0  0  0  0  0  0  0
   -0.1561   -1.4267    0.0000 Cl  0  0  0  0  0  0  0  0  0  0  0  0
  1  2  1  0  0  0  0
  2  3  1  0  0  0  0
  3  4  2  0  0  0  0
  3  5  1  0  0  0  0
  5  6  2  0  0  0  0
  6  7  1  0  0  0  0
  7  8  2  0  0  0  0
  8  9  1  0  0  0  0
  9 10  2  0  0  0  0
  5 10  1  0  0  0  0
 10 11  1  0  0  0  0
  9 12  1  0  0  0  0
  8 13  1  0  0  0  0
 13 14  2  0  0  0  0
 13 15  1  0  0  0  0
 15 16  1  0  0  0  0
  7 17  1  0  0  0  0
  6 18  1  0  0  0  0
M  END
> <#>
380

> <PLATE>
LAT005

> <ROW>
D

> <COL>
9

> <COORD>
D09

> <LATID>
LAT005D09

> <Supplier>
Riedel-de Haen

> <Suplier_CAT#>
45397

> <Name>
Chlorthal-Dimethyl

> <Concentration_(mM)>
2.5

> <IC50_(µM)>
>100

> <Yeast_Active?>
-

> <Pubchem_CID>
2943

> <Description>
Herbicide

$$$$
