
  -ISIS-  08130814242D

 20 22  0  0  0  0  0  0  0  0999 V2000
    3.8792    0.8917    0.0000 N   0  0  3  0  0  0  0  0  0  0  0  0
    3.0167    1.3917    0.0000 C   0  0  0  0  0  0  0  0  0  0  0  0
    3.8792   -2.1083    0.0000 C   0  0  1  0  0  0  0  0  0  0  0  0
    3.0167    2.3917    0.0000 C   0  0  0  0  0  0  0  0  0  0  0  0
    2.1542    0.8917    0.0000 N   0  0  0  0  0  0  0  0  0  0  0  0
    4.7500    2.3917    0.0000 N   0  0  0  0  0  0  0  0  0  0  0  0
    3.3792   -2.9292    0.0000 C   0  0  3  0  0  0  0  0  0  0  0  0
    4.7500    1.3917    0.0000 C   0  0  0  0  0  0  0  0  0  0  0  0
    1.2875    2.3917    0.0000 N   0  0  0  0  0  0  0  0  0  0  0  0
    2.7917   -1.4958    0.0000 O   0  0  0  0  0  0  0  0  0  0  0  0
    2.1125    2.8917    0.0000 C   0  0  0  0  0  0  0  0  0  0  0  0
    1.2875    1.3917    0.0000 C   0  0  0  0  0  0  0  0  0  0  0  0
    2.2042   -2.9292    0.0000 C   0  0  2  0  0  0  0  0  0  0  0  0
    1.7500   -2.1583    0.0000 C   0  0  1  0  0  0  0  0  0  0  0  0
    3.3792   -3.7042    0.0000 O   0  0  0  0  0  0  0  0  0  0  0  0
    2.1125    3.5292    0.0000 N   0  0  0  0  0  0  0  0  0  0  0  0
    0.7500    1.0708    0.0000 Cl  0  0  0  0  0  0  0  0  0  0  0  0
    2.1542   -3.7042    0.0000 O   0  0  0  0  0  0  0  0  0  0  0  0
    1.7417   -1.3333    0.0000 C   0  0  0  0  0  0  0  0  0  0  0  0
    1.0292   -0.9208    0.0000 O   0  0  0  0  0  0  0  0  0  0  0  0
  2  1  1  0  0  0  0
  3  1  1  0  0  0  0
  4  2  2  0  0  0  0
  5  2  1  0  0  0  0
  6  8  2  0  0  0  0
  3  7  1  1  0  0  0
  8  1  1  0  0  0  0
  9 12  1  0  0  0  0
 10  3  1  0  0  0  0
 11  4  1  0  0  0  0
 12  5  2  0  0  0  0
 13  7  1  1  0  0  0
 14 10  1  0  0  0  0
 15  7  1  0  0  0  0
 16 11  1  0  0  0  0
 17 12  1  0  0  0  0
 18 13  1  0  0  0  0
 19 14  1  0  0  0  0
 20 19  1  0  0  0  0
  4  6  1  0  0  0  0
 14 13  1  1  0  0  0
  9 11  2  0  0  0  0
M  END
> <#>
210

> <PLATE>
LAT003

> <ROW>
B

> <COL>
8

> <COORD>
B08

> <LATID>
LAT003B08

> <Supplier>
Sigma

> <Suplier_CAT#>
C 5134

> <Name>
2-Chloroadenosine

> <Concentration_(mM)>
2.5

> <IC50_(µM)>
17

> <Yeast_Active?>
-

> <Pubchem_CID>
8974

> <Description>
Kinetin Analog

> <LATCA_Notes>
Phenocopies ACC addition

$$$$
