
  -ISIS-  08130814242D

 21 23  0  0  0  0  0  0  0  0999 V2000
    5.9074   -2.3044    0.0000 C   0  0  0  0  0  0  0  0  0  0  0  0
    5.1347   -2.7506    0.0000 C   0  0  0  0  0  0  0  0  0  0  0  0
    5.1347   -3.6429    0.0000 C   0  0  0  0  0  0  0  0  0  0  0  0
    5.9074   -4.0891    0.0000 C   0  0  1  0  0  0  0  0  0  0  0  0
    5.3339   -4.7726    0.0000 C   0  0  0  0  0  0  0  0  0  0  0  0
    6.4810   -4.7726    0.0000 C   0  0  0  0  0  0  0  0  0  0  0  0
    6.6802   -3.6429    0.0000 C   0  0  3  0  0  0  0  0  0  0  0  0
    7.4530   -4.0891    0.0000 C   0  0  0  0  0  0  0  0  0  0  0  0
    8.2257   -3.6429    0.0000 C   0  0  0  0  0  0  0  0  0  0  0  0
    8.2257   -2.7506    0.0000 C   0  0  1  0  0  0  0  0  0  0  0  0
    8.9985   -2.3044    0.0000 C   0  0  0  0  0  0  0  0  0  0  0  0
    8.9985   -1.4121    0.0000 C   0  0  0  0  0  0  0  0  0  0  0  0
    8.2257   -0.9659    0.0000 C   0  0  0  0  0  0  0  0  0  0  0  0
    7.4530   -1.4121    0.0000 C   0  0  0  0  0  0  0  0  0  0  0  0
    7.4530   -2.3044    0.0000 C   0  0  2  0  0  0  0  0  0  0  0  0
    6.6802   -2.7506    0.0000 C   0  0  1  0  0  0  0  0  0  0  0  0
    6.6802   -1.8583    0.0000 C   0  0  0  0  0  0  0  0  0  0  0  0
    4.4551   -4.6177    0.0000 O   0  0  0  0  0  0  0  0  0  0  0  0
    5.6390   -5.6111    0.0000 O   0  0  0  0  0  0  0  0  0  0  0  0
    7.4530   -3.1968    0.0000 H   0  0  0  0  0  0  0  0  0  0  0  0
    8.2257   -1.8583    0.0000 H   0  0  0  0  0  0  0  0  0  0  0  0
  1  2  1  0  0  0  0
  2  3  1  0  0  0  0
  3  4  1  0  0  0  0
  4  5  1  1  0  0  0
  4  6  1  6  0  0  0
  4  7  1  0  0  0  0
  7  8  1  0  0  0  0
  8  9  1  0  0  0  0
  9 10  1  0  0  0  0
 10 11  1  0  0  0  0
 11 12  1  0  0  0  0
 12 13  1  0  0  0  0
 13 14  1  0  0  0  0
 14 15  1  0  0  0  0
 10 15  1  0  0  0  0
 15 16  1  0  0  0  0
 16 17  1  1  0  0  0
  1 16  1  0  0  0  0
  7 16  1  0  0  0  0
  5 18  2  0  0  0  0
  5 19  1  0  0  0  0
 15 20  1  6  0  0  0
 10 21  1  1  0  0  0
M  END
> <#>
473

> <PLATE>
LAT006

> <ROW>
A

> <COL>
11

> <COORD>
A11

> <LATID>
LAT006A11

> <Supplier>
Aldrich

> <Suplier_CAT#>
119792

> <Name>
Podocarpic Acid

> <Concentration_(mM)>
2.5

> <IC50_(µM)>
>100

> <Yeast_Active?>
-

> <Pubchem_CID>
220357

$$$$
