
  -ISIS-  08130814242D

 22 23  0  0  0  0  0  0  0  0999 V2000
   -1.6458   -1.1875    0.0000 C   0  0  0  0  0  0  0  0  0  0  0  0
    0.1792   -0.1500    0.0000 C   0  0  0  0  0  0  0  0  0  0  0  0
   -1.3458   -0.6667    0.0000 C   0  0  0  0  0  0  0  0  0  0  0  0
   -0.7458   -0.6667    0.0000 O   0  0  0  0  0  0  0  0  0  0  0  0
   -2.2458   -1.1875    0.0000 C   0  0  0  0  0  0  0  0  0  0  0  0
    0.4792   -0.6667    0.0000 O   0  0  0  0  0  0  0  0  0  0  0  0
   -1.6458   -0.1500    0.0000 C   0  0  0  0  0  0  0  0  0  0  0  0
   -0.4458   -0.1500    0.0000 C   0  0  0  0  0  0  0  0  0  0  0  0
    0.4792    0.3958    0.0000 N   0  0  0  0  0  0  0  0  0  0  0  0
   -2.5458   -0.6667    0.0000 C   0  0  0  0  0  0  0  0  0  0  0  0
   -2.2458   -0.1500    0.0000 C   0  0  0  0  0  0  0  0  0  0  0  0
   -3.1625   -0.6667    0.0000 Cl  0  0  0  0  0  0  0  0  0  0  0  0
    2.2792    1.4333    0.0000 C   0  0  0  0  0  0  0  0  0  0  0  0
   -1.3458   -1.7292    0.0000 C   0  0  0  0  0  0  0  0  0  0  0  0
    1.0792    0.3958    0.0000 C   0  0  0  0  0  0  0  0  0  0  0  0
    1.9792    0.9125    0.0000 C   0  0  0  0  0  0  0  0  0  0  0  0
    1.9792    1.9583    0.0000 C   0  0  0  0  0  0  0  0  0  0  0  0
    2.8792    1.4333    0.0000 C   0  0  0  0  0  0  0  0  0  0  0  0
    1.3792    0.9125    0.0000 C   0  0  0  0  0  0  0  0  0  0  0  0
    3.1792    1.9583    0.0000 C   0  0  0  0  0  0  0  0  0  0  0  0
    2.2792    2.4708    0.0000 C   0  0  0  0  0  0  0  0  0  0  0  0
    2.8792    2.4708    0.0000 C   0  0  0  0  0  0  0  0  0  0  0  0
  2  8  1  0  0  0  0
  3  1  1  0  0  0  0
  4  3  1  0  0  0  0
  5  1  2  0  0  0  0
  6  2  2  0  0  0  0
  7  3  2  0  0  0  0
  8  4  1  0  0  0  0
  9  2  1  0  0  0  0
 10  5  1  0  0  0  0
 11 10  2  0  0  0  0
 12 10  1  0  0  0  0
 13 16  1  0  0  0  0
 14  1  1  0  0  0  0
 15  9  1  0  0  0  0
 16 19  1  0  0  0  0
 17 13  2  0  0  0  0
 18 13  1  0  0  0  0
 19 15  1  0  0  0  0
 20 18  2  0  0  0  0
 21 17  1  0  0  0  0
 22 20  1  0  0  0  0
 11  7  1  0  0  0  0
 22 21  2  0  0  0  0
M  END
> <#>
622

> <PLATE>
LAT008

> <ROW>
F

> <COL>
9

> <COORD>
F09

> <LATID>
LAT008F09

> <Supplier>
Chembridge

> <Suplier_CAT#>
5536167

> <Name>
Novel

> <Sec_Name>
156_E07

> <Concentration_(mM)>
2.5

> <IC50_(µM)>
8

> <Yeast_Active?>
-

> <Pubchem_CID>
2850751

$$$$
