
  -ISIS-  08130814242D

 26 28  0  0  0  0  0  0  0  0999 V2000
   -3.3625    0.0625    0.0000 N   0  0  3  0  0  0  0  0  0  0  0  0
   -3.7625   -0.2292    0.0000 C   0  0  0  0  0  0  0  0  0  0  0  0
   -3.1125   -0.7042    0.0000 C   0  0  0  0  0  0  0  0  0  0  0  0
   -2.9625   -0.2292    0.0000 C   0  0  0  0  0  0  0  0  0  0  0  0
   -3.6125   -0.7042    0.0000 S   0  0  0  0  0  0  0  0  0  0  0  0
   -4.5958    2.2208    0.0000 N   0  3  0  0  0  0  0  0  0  0  0  0
   -2.8208   -1.1000    0.0000 C   0  0  0  0  0  0  0  0  0  0  0  0
   -3.3625    0.5458    0.0000 C   0  0  0  0  0  0  0  0  0  0  0  0
   -4.1833    1.9833    0.0000 C   0  0  0  0  0  0  0  0  0  0  0  0
   -2.3458   -1.0500    0.0000 C   0  0  0  0  0  0  0  0  0  0  0  0
   -4.1833    1.5000    0.0000 C   0  0  0  0  0  0  0  0  0  0  0  0
   -4.5833    2.6958    0.0000 O   0  5  0  0  0  0  0  0  0  0  0  0
   -4.2208   -0.0667    0.0000 O   0  0  0  0  0  0  0  0  0  0  0  0
   -4.9958    1.9958    0.0000 O   0  0  0  0  0  0  0  0  0  0  0  0
   -2.4958   -0.0542    0.0000 O   0  0  0  0  0  0  0  0  0  0  0  0
   -3.7708    0.7833    0.0000 N   0  0  0  0  0  0  0  0  0  0  0  0
   -2.0625   -1.4292    0.0000 C   0  0  0  0  0  0  0  0  0  0  0  0
   -3.7708    1.2625    0.0000 C   0  0  0  0  0  0  0  0  0  0  0  0
   -2.2625   -1.8542    0.0000 Cl  0  0  0  0  0  0  0  0  0  0  0  0
   -3.7708    2.2208    0.0000 C   0  0  0  0  0  0  0  0  0  0  0  0
   -3.3625    1.9833    0.0000 C   0  0  0  0  0  0  0  0  0  0  0  0
   -2.1500   -0.6167    0.0000 C   0  0  0  0  0  0  0  0  0  0  0  0
   -1.5833   -1.3792    0.0000 C   0  0  0  0  0  0  0  0  0  0  0  0
   -3.3625    1.5000    0.0000 C   0  0  0  0  0  0  0  0  0  0  0  0
   -1.6708   -0.5667    0.0000 C   0  0  0  0  0  0  0  0  0  0  0  0
   -1.3833   -0.9500    0.0000 C   0  0  0  0  0  0  0  0  0  0  0  0
  2  1  1  0  0  0  0
  3  4  1  0  0  0  0
  4  1  1  0  0  0  0
  5  2  1  0  0  0  0
  6  9  1  0  0  0  0
  7  3  2  0  0  0  0
  8  1  1  0  0  0  0
  9 11  2  0  0  0  0
 10  7  1  0  0  0  0
 11 18  1  0  0  0  0
 12  6  1  0  0  0  0
 13  2  2  0  0  0  0
 14  6  2  0  0  0  0
 15  4  2  0  0  0  0
 16  8  1  0  0  0  0
 17 10  2  0  0  0  0
 18 16  1  0  0  0  0
 19 17  1  0  0  0  0
 20 21  2  0  0  0  0
 21 24  1  0  0  0  0
 22 10  1  0  0  0  0
 23 17  1  0  0  0  0
 24 18  2  0  0  0  0
 25 22  2  0  0  0  0
 26 25  1  0  0  0  0
  3  5  1  0  0  0  0
 20  9  1  0  0  0  0
 23 26  2  0  0  0  0
M  CHG  2   6   1  12  -1
M  END
> <#>
758

> <PLATE>
LAT010

> <ROW>
F

> <COL>
6

> <COORD>
F06

> <LATID>
LAT010F06

> <Supplier>
Chembridge

> <Suplier_CAT#>
5605396

> <Name>
Novel

> <Sec_Name>
183_H04

> <Concentration_(mM)>
2.5

> <IC50_(µM)>
27

> <Yeast_Active?>
-

> <Pubchem_CID>
1205522

$$$$
