
  -ISIS-  08130814242D

 23 24  0  0  0  0  0  0  0  0999 V2000
    1.8500   -0.3292    0.0000 N   0  0  3  0  0  0  0  0  0  0  0  0
    1.5167   -1.5000    0.0000 C   0  0  0  0  0  0  0  0  0  0  0  0
    0.8000    0.3333    0.0000 C   0  0  0  0  0  0  0  0  0  0  0  0
   -0.1500   -0.4500    0.0000 C   0  0  0  0  0  0  0  0  0  0  0  0
    0.3000   -1.5792    0.0000 S   0  0  0  0  0  0  0  0  0  0  0  0
   -1.2708   -0.0167    0.0000 C   0  0  0  0  0  0  0  0  0  0  0  0
    3.0000    0.1125    0.0000 C   0  0  3  0  0  0  0  0  0  0  0  0
    3.9500   -0.6500    0.0000 C   0  0  0  0  0  0  0  0  0  0  0  0
   -2.2458   -0.8292    0.0000 C   0  0  0  0  0  0  0  0  0  0  0  0
    2.3542   -2.4500    0.0000 S   0  0  0  0  0  0  0  0  0  0  0  0
   -3.4000   -0.4000    0.0000 C   0  0  0  0  0  0  0  0  0  0  0  0
   -4.3500   -1.1292    0.0000 C   0  0  0  0  0  0  0  0  0  0  0  0
    0.7167    1.5500    0.0000 O   0  0  0  0  0  0  0  0  0  0  0  0
    5.1000   -0.2000    0.0000 O   0  0  0  0  0  0  0  0  0  0  0  0
   -2.0458   -2.0000    0.0000 C   0  0  0  0  0  0  0  0  0  0  0  0
   -4.1625   -2.3500    0.0000 C   0  0  0  0  0  0  0  0  0  0  0  0
   -3.6125    0.8208    0.0000 Cl  0  0  0  0  0  0  0  0  0  0  0  0
    3.8000   -1.8667    0.0000 O   0  0  0  0  0  0  0  0  0  0  0  0
   -2.9958   -2.7667    0.0000 C   0  0  0  0  0  0  0  0  0  0  0  0
   -5.1208   -3.1167    0.0000 Cl  0  0  0  0  0  0  0  0  0  0  0  0
    3.2000    1.3500    0.0000 C   0  0  0  0  0  0  0  0  0  0  0  0
    2.2167    2.1208    0.0000 C   0  0  0  0  0  0  0  0  0  0  0  0
    2.4042    3.3458    0.0000 C   0  0  0  0  0  0  0  0  0  0  0  0
  2  1  1  0  0  0  0
  3  1  1  0  0  0  0
  4  3  1  0  0  0  0
  5  2  1  0  0  0  0
  6  4  2  0  0  0  0
  7  1  1  0  0  0  0
  8  7  1  0  0  0  0
  9  6  1  0  0  0  0
 10  2  2  0  0  0  0
 11  9  2  0  0  0  0
 12 11  1  0  0  0  0
 13  3  2  0  0  0  0
 14  8  2  0  0  0  0
 15  9  1  0  0  0  0
 16 19  1  0  0  0  0
 17 11  1  0  0  0  0
 18  8  1  0  0  0  0
 19 15  2  0  0  0  0
 20 16  1  0  0  0  0
 21  7  1  0  0  0  0
 22 21  1  0  0  0  0
 23 22  1  0  0  0  0
  5  4  1  0  0  0  0
 12 16  2  0  0  0  0
M  END
> <#>
787

> <PLATE>
LAT010

> <ROW>
C

> <COL>
10

> <COORD>
C10

> <LATID>
LAT010C10

> <Supplier>
Chembridge

> <Suplier_CAT#>
5624829

> <Name>
Novel

> <Sec_Name>
189_G05

> <Concentration_(mM)>
2.5

> <IC50_(µM)>
20

> <Yeast_Active?>
-

> <Pubchem_CID>
1352501

$$$$
