
  -ISIS-  08130814242D

 19 18  0  0  0  0  0  0  0  0999 V2000
   -3.3321    1.1992    0.0000 C   0  0  0  0  0  0  0  0  0  0  0  0
   -4.2244    1.1912    0.0000 C   0  0  0  0  0  0  0  0  0  0  0  0
   -2.8930    1.9760    0.0000 O   0  0  0  0  0  0  0  0  0  0  0  0
   -2.8790    0.4305    0.0000 O   0  0  0  0  0  0  0  0  0  0  0  0
   -3.3182   -0.3463    0.0000 C   0  0  0  0  0  0  0  0  0  0  0  0
   -2.8651   -1.1150    0.0000 C   0  0  0  0  0  0  0  0  0  0  0  0
   -1.9728   -1.1069    0.0000 C   0  0  0  0  0  0  0  0  0  0  0  0
   -1.5337   -0.3302    0.0000 C   0  0  0  0  0  0  0  0  0  0  0  0
   -1.5197   -1.8757    0.0000 C   0  0  0  0  0  0  0  0  0  0  0  0
   -0.6275   -1.8676    0.0000 C   0  0  0  0  0  0  0  0  0  0  0  0
   -0.1883   -1.0909    0.0000 C   0  0  0  0  0  0  0  0  0  0  0  0
    0.7040   -1.0828    0.0000 C   0  0  0  0  0  0  0  0  0  0  0  0
    1.1571   -1.8516    0.0000 C   0  0  0  0  0  0  0  0  0  0  0  0
    1.1432   -0.3061    0.0000 C   0  0  0  0  0  0  0  0  0  0  0  0
    2.0355   -0.2981    0.0000 C   0  0  0  0  0  0  0  0  0  0  0  0
    2.4747    0.4787    0.0000 C   0  0  0  0  0  0  0  0  0  0  0  0
    3.3670    0.4867    0.0000 C   0  0  0  0  0  0  0  0  0  0  0  0
    3.8061    1.2635    0.0000 C   0  0  0  0  0  0  0  0  0  0  0  0
    3.8201   -0.2820    0.0000 C   0  0  0  0  0  0  0  0  0  0  0  0
  1  2  1  0  0  0  0
  1  3  2  0  0  0  0
  1  4  1  0  0  0  0
  5  6  1  0  0  0  0
  6  7  2  0  0  0  0
  7  8  1  0  0  0  0
  7  9  1  0  0  0  0
  9 10  1  0  0  0  0
 10 11  1  0  0  0  0
 11 12  2  0  0  0  0
 12 13  1  0  0  0  0
 12 14  1  0  0  0  0
 14 15  1  0  0  0  0
 15 16  1  0  0  0  0
 16 17  2  0  0  0  0
 17 18  1  0  0  0  0
 17 19  1  0  0  0  0
  4  5  1  0  0  0  0
M  END
> <#>
460

> <PLATE>
LAT006

> <ROW>
D

> <COL>
9

> <COORD>
D09

> <LATID>
LAT006D09

> <Supplier>
Sigma

> <Suplier_CAT#>
F-2916

> <Name>
Trans-Trans-Farnesyl Acetate

> <Concentration_(mM)>
2.5

> <IC50_(µM)>
inactive

> <Yeast_Active?>
-

> <Pubchem_CID>
94403

$$$$
