
  -ISIS-  08130814242D

 23 25  0  0  0  0  0  0  0  0999 V2000
    4.7250   -2.7375    0.0000 S   0  0  3  0  0  0  0  0  0  0  0  0
    5.3792   -3.1167    0.0000 N   0  0  3  0  0  0  0  0  0  0  0  0
    5.3792   -3.8667    0.0000 C   0  0  0  0  0  0  0  0  0  0  0  0
    4.7250   -4.2417    0.0000 C   0  0  0  0  0  0  0  0  0  0  0  0
    6.0292   -4.2417    0.0000 C   0  0  0  0  0  0  0  0  0  0  0  0
    4.0667   -3.1167    0.0000 C   0  0  0  0  0  0  0  0  0  0  0  0
    4.0667   -3.8667    0.0000 C   0  0  0  0  0  0  0  0  0  0  0  0
    6.6792   -3.8667    0.0000 N   0  0  0  0  0  0  0  0  0  0  0  0
    5.3292   -1.9625    0.0000 O   0  0  0  0  0  0  0  0  0  0  0  0
    4.1750   -1.9917    0.0000 O   0  0  0  0  0  0  0  0  0  0  0  0
    7.3250   -4.2417    0.0000 C   0  0  0  0  0  0  0  0  0  0  0  0
    6.0292   -4.9917    0.0000 O   0  0  0  0  0  0  0  0  0  0  0  0
    7.3250   -4.9917    0.0000 N   0  0  0  0  0  0  0  0  0  0  0  0
    4.7250   -4.9917    0.0000 O   0  0  0  0  0  0  0  0  0  0  0  0
    6.0292   -2.7417    0.0000 C   0  0  0  0  0  0  0  0  0  0  0  0
    3.4167   -4.2417    0.0000 C   0  0  0  0  0  0  0  0  0  0  0  0
    3.4167   -2.7375    0.0000 C   0  0  0  0  0  0  0  0  0  0  0  0
    7.9750   -5.3667    0.0000 C   0  0  0  0  0  0  0  0  0  0  0  0
    7.9750   -3.8667    0.0000 C   0  0  0  0  0  0  0  0  0  0  0  0
    2.7667   -3.8667    0.0000 C   0  0  0  0  0  0  0  0  0  0  0  0
    2.7667   -3.1167    0.0000 C   0  0  0  0  0  0  0  0  0  0  0  0
    8.6250   -4.9917    0.0000 C   0  0  0  0  0  0  0  0  0  0  0  0
    8.6250   -4.2417    0.0000 C   0  0  0  0  0  0  0  0  0  0  0  0
  2  1  1  0  0  0  0
  3  2  1  0  0  0  0
  4  7  1  0  0  0  0
  5  3  1  0  0  0  0
  6  1  1  0  0  0  0
  7  6  2  0  0  0  0
  8  5  1  0  0  0  0
  9  1  2  0  0  0  0
 10  1  2  0  0  0  0
 11  8  1  0  0  0  0
 12  5  2  0  0  0  0
 13 11  1  0  0  0  0
 14  4  1  0  0  0  0
 15  2  1  0  0  0  0
 16  7  1  0  0  0  0
 17  6  1  0  0  0  0
 18 13  2  0  0  0  0
 19 11  2  0  0  0  0
 20 21  1  0  0  0  0
 21 17  2  0  0  0  0
 22 23  2  0  0  0  0
 23 19  1  0  0  0  0
  4  3  2  0  0  0  0
 16 20  2  0  0  0  0
 18 22  1  0  0  0  0
M  END
> <#>
118

> <PLATE>
LAT002

> <ROW>
F

> <COL>
6

> <COORD>
F06

> <LATID>
LAT002F06

> <Supplier>
Microsource

> <Suplier_CAT#>
01500491

> <Name>
Piroxicam

> <Concentration_(mM)>
2.5

> <IC50_(µM)>
25

> <Yeast_Active?>
-

> <Pubchem_CID>
5280452

> <Description>
Antiinflammatory

$$$$
