
  -ISIS-  08130814242D

 21 22  0  0  0  0  0  0  0  0999 V2000
   -1.7208   -1.2042    0.0000 C   0  0  0  0  0  0  0  0  0  0  0  0
    0.1000   -0.1667    0.0000 C   0  0  0  0  0  0  0  0  0  0  0  0
   -1.4208   -0.6875    0.0000 C   0  0  0  0  0  0  0  0  0  0  0  0
   -0.8000   -0.6875    0.0000 O   0  0  0  0  0  0  0  0  0  0  0  0
   -2.3208   -1.2042    0.0000 C   0  0  0  0  0  0  0  0  0  0  0  0
    0.4000   -0.6875    0.0000 O   0  0  0  0  0  0  0  0  0  0  0  0
   -1.7208   -0.1667    0.0000 C   0  0  0  0  0  0  0  0  0  0  0  0
    0.4000    0.3708    0.0000 N   0  0  0  0  0  0  0  0  0  0  0  0
   -0.5000   -0.1667    0.0000 C   0  0  0  0  0  0  0  0  0  0  0  0
   -2.6208   -0.6875    0.0000 C   0  0  0  0  0  0  0  0  0  0  0  0
   -2.3208   -0.1667    0.0000 C   0  0  0  0  0  0  0  0  0  0  0  0
   -3.2208   -0.6875    0.0000 Cl  0  0  0  0  0  0  0  0  0  0  0  0
    1.0000    0.3708    0.0000 C   0  0  0  0  0  0  0  0  0  0  0  0
    1.9000    0.8958    0.0000 C   0  0  0  0  0  0  0  0  0  0  0  0
   -1.4000   -1.7500    0.0000 C   0  0  0  0  0  0  0  0  0  0  0  0
    1.3000    0.8958    0.0000 C   0  0  0  0  0  0  0  0  0  0  0  0
    2.1917    0.3708    0.0000 C   0  0  0  0  0  0  0  0  0  0  0  0
    2.1917    1.4125    0.0000 C   0  0  0  0  0  0  0  0  0  0  0  0
    2.8000    0.3708    0.0000 C   0  0  0  0  0  0  0  0  0  0  0  0
    2.8000    1.4125    0.0000 C   0  0  0  0  0  0  0  0  0  0  0  0
    3.1000    0.8958    0.0000 C   0  0  0  0  0  0  0  0  0  0  0  0
  2  9  1  0  0  0  0
  3  1  1  0  0  0  0
  4  3  1  0  0  0  0
  5  1  2  0  0  0  0
  6  2  2  0  0  0  0
  7  3  2  0  0  0  0
  8  2  1  0  0  0  0
  9  4  1  0  0  0  0
 10  5  1  0  0  0  0
 11 10  2  0  0  0  0
 12 10  1  0  0  0  0
 13  8  1  0  0  0  0
 14 16  1  0  0  0  0
 15  1  1  0  0  0  0
 16 13  1  0  0  0  0
 17 14  1  0  0  0  0
 18 14  2  0  0  0  0
 19 17  2  0  0  0  0
 20 18  1  0  0  0  0
 21 20  2  0  0  0  0
  7 11  1  0  0  0  0
 19 21  1  0  0  0  0
M  END
> <#>
673

> <PLATE>
LAT009

> <ROW>
A

> <COL>
6

> <COORD>
A06

> <LATID>
LAT009A06

> <Supplier>
Chembridge

> <Suplier_CAT#>
5560180

> <Name>
Novel

> <Sec_Name>
172_D03

> <Concentration_(mM)>
2.5

> <IC50_(µM)>
25

> <Yeast_Active?>
-

> <Pubchem_CID>
871993

$$$$
