
  -ISIS-  08130814242D

 17 17  0  0  0  0  0  0  0  0999 V2000
   -1.8458   -1.2167    0.0000 C   0  0  0  0  0  0  0  0  0  0  0  0
   -2.4625   -1.2167    0.0000 C   0  0  0  0  0  0  0  0  0  0  0  0
   -2.7833   -0.7000    0.0000 C   0  0  0  0  0  0  0  0  0  0  0  0
   -1.5208   -0.7042    0.0000 O   0  0  0  0  0  0  0  0  0  0  0  0
   -1.5333   -1.7500    0.0000 N   0  0  0  0  0  0  0  0  0  0  0  0
   -3.4208   -0.7167    0.0000 C   0  0  0  0  0  0  0  0  0  0  0  0
   -4.6958   -0.7500    0.0000 C   0  0  0  0  0  0  0  0  0  0  0  0
   -5.3000   -0.8167    0.0000 Cl  0  0  0  0  0  0  0  0  0  0  0  0
   -3.7500   -0.1667    0.0000 C   0  0  0  0  0  0  0  0  0  0  0  0
   -3.7208   -1.2292    0.0000 C   0  0  0  0  0  0  0  0  0  0  0  0
   -4.3833   -0.1667    0.0000 C   0  0  0  0  0  0  0  0  0  0  0  0
   -4.3625   -1.2500    0.0000 C   0  0  0  0  0  0  0  0  0  0  0  0
   -0.6000   -1.2542    0.0000 C   0  0  0  0  0  0  0  0  0  0  0  0
    0.3375   -0.7792    0.0000 O   0  0  0  0  0  0  0  0  0  0  0  0
   -0.9208   -1.7667    0.0000 C   0  0  0  0  0  0  0  0  0  0  0  0
    0.0042   -1.2875    0.0000 C   0  0  0  0  0  0  0  0  0  0  0  0
    0.9500   -0.8042    0.0000 C   0  0  0  0  0  0  0  0  0  0  0  0
  2  1  1  0  0  0  0
  3  2  2  0  0  0  0
  4  1  2  0  0  0  0
  5  1  1  0  0  0  0
  6  3  1  0  0  0  0
  7 12  2  0  0  0  0
  8  7  1  0  0  0  0
  9  6  1  0  0  0  0
 10  6  2  0  0  0  0
 11  9  2  0  0  0  0
 12 10  1  0  0  0  0
 13 15  1  0  0  0  0
 14 16  1  0  0  0  0
 15  5  1  0  0  0  0
 16 13  1  0  0  0  0
 17 14  1  0  0  0  0
  7 11  1  0  0  0  0
M  END
> <#>
739

> <PLATE>
LAT010

> <ROW>
C

> <COL>
4

> <COORD>
C04

> <LATID>
LAT010C04

> <Supplier>
Chembridge

> <Suplier_CAT#>
5575480

> <Name>
Novel

> <Sec_Name>
178_B05

> <Concentration_(mM)>
2.5

> <IC50_(µM)>
95

> <Yeast_Active?>
-

> <Pubchem_CID>
2251334

$$$$
