
  -ISIS-  08130814242D

 29 32  0  0  0  0  0  0  0  0999 V2000
   -0.0500   -0.0167    0.0000 N   0  0  3  0  0  0  0  0  0  0  0  0
   -0.4625   -1.1042    0.0000 N   0  0  3  0  0  0  0  0  0  0  0  0
   -0.0458   -0.4667    0.0000 C   0  0  0  0  0  0  0  0  0  0  0  0
    0.3292    0.1958    0.0000 C   0  0  3  0  0  0  0  0  0  0  0  0
   -0.4458    0.1958    0.0000 C   0  0  0  0  0  0  0  0  0  0  0  0
   -0.0500    0.8625    0.0000 C   0  0  3  0  0  0  0  0  0  0  0  0
   -0.4458    0.6333    0.0000 C   0  0  0  0  0  0  0  0  0  0  0  0
   -0.4458   -0.6542    0.0000 C   0  0  0  0  0  0  0  0  0  0  0  0
    0.3292    0.6333    0.0000 C   0  0  0  0  0  0  0  0  0  0  0  0
   -0.8333   -1.3292    0.0000 C   0  0  0  0  0  0  0  0  0  0  0  0
   -0.1000   -1.4000    0.0000 C   0  0  0  0  0  0  0  0  0  0  0  0
    0.3667   -0.7042    0.0000 O   0  0  0  0  0  0  0  0  0  0  0  0
    0.2500    1.1958    0.0000 C   0  0  0  0  0  0  0  0  0  0  0  0
   -0.2708   -1.8375    0.0000 C   0  0  0  0  0  0  0  0  0  0  0  0
   -0.7333   -1.8000    0.0000 C   0  0  0  0  0  0  0  0  0  0  0  0
   -1.2458   -1.1500    0.0000 O   0  0  0  0  0  0  0  0  0  0  0  0
    0.3500   -1.3000    0.0000 O   0  0  0  0  0  0  0  0  0  0  0  0
   -0.4833    1.2333    0.0000 C   0  0  0  0  0  0  0  0  0  0  0  0
    0.8667    0.4125    0.0000 C   0  0  0  0  0  0  0  0  0  0  0  0
    0.8292   -0.0667    0.0000 C   0  0  0  0  0  0  0  0  0  0  0  0
   -0.8208   -0.0167    0.0000 C   0  0  0  0  0  0  0  0  0  0  0  0
   -0.8208    0.8625    0.0000 C   0  0  0  0  0  0  0  0  0  0  0  0
    0.6792    1.0708    0.0000 C   0  0  0  0  0  0  0  0  0  0  0  0
    0.1167    1.6125    0.0000 C   0  0  0  0  0  0  0  0  0  0  0  0
   -1.2000    0.1958    0.0000 C   0  0  0  0  0  0  0  0  0  0  0  0
   -1.2000    0.6333    0.0000 C   0  0  0  0  0  0  0  0  0  0  0  0
    0.4167    1.9458    0.0000 C   0  0  0  0  0  0  0  0  0  0  0  0
    0.9875    1.4125    0.0000 C   0  0  0  0  0  0  0  0  0  0  0  0
    0.8542    1.8458    0.0000 C   0  0  0  0  0  0  0  0  0  0  0  0
  2  8  1  0  0  0  0
  3  1  1  0  0  0  0
  4  1  1  0  0  0  0
  5  1  1  0  0  0  0
  6  7  1  0  0  0  0
  7  5  2  0  0  0  0
  8  3  1  0  0  0  0
  9  4  1  0  0  0  0
 10  2  1  0  0  0  0
 11  2  1  0  0  0  0
 12  3  2  0  0  0  0
 13  6  1  0  0  0  0
 14 11  1  0  0  0  0
 15 10  1  0  0  0  0
 16 10  2  0  0  0  0
 17 11  2  0  0  0  0
 18  6  1  0  0  0  0
 19  4  1  0  0  0  0
 20  4  1  0  0  0  0
 21  5  1  0  0  0  0
 22  7  1  0  0  0  0
 23 13  1  0  0  0  0
 24 13  2  0  0  0  0
 25 21  2  0  0  0  0
 26 25  1  0  0  0  0
 27 24  1  0  0  0  0
 28 23  2  0  0  0  0
 29 27  2  0  0  0  0
  9  6  1  0  0  0  0
 22 26  2  0  0  0  0
 15 14  1  0  0  0  0
 29 28  1  0  0  0  0
M  END
> <#>
814

> <PLATE>
LAT011

> <ROW>
F

> <COL>
3

> <COORD>
F03

> <LATID>
LAT011F03

> <Supplier>
Chembridge

> <Suplier_CAT#>
5660615

> <Name>
Novel

> <Sec_Name>
205_E10

> <Concentration_(mM)>
2.5

> <IC50_(µM)>
24

> <Yeast_Active?>
-

> <Pubchem_CID>
1224796

$$$$
