
  -ISIS-  08130814242D

 11 11  0  0  0  0  0  0  0  0999 V2000
    6.6596   -2.5916    0.0000 C   0  0  0  0  0  0  0  0  0  0  0  0
    7.5519   -2.5916    0.0000 C   0  0  0  0  0  0  0  0  0  0  0  0
    7.9980   -1.8188    0.0000 C   0  0  0  0  0  0  0  0  0  0  0  0
    8.8904   -1.8188    0.0000 C   0  0  0  0  0  0  0  0  0  0  0  0
    9.3365   -2.5916    0.0000 C   0  0  0  0  0  0  0  0  0  0  0  0
    8.8904   -3.3644    0.0000 C   0  0  0  0  0  0  0  0  0  0  0  0
    7.9980   -3.3644    0.0000 C   0  0  0  0  0  0  0  0  0  0  0  0
    6.2134   -3.3644    0.0000 O   0  0  0  0  0  0  0  0  0  0  0  0
    6.2134   -1.8188    0.0000 O   0  0  0  0  0  0  0  0  0  0  0  0
   10.2288   -2.5916    0.0000 C   0  0  0  0  0  0  0  0  0  0  0  0
    9.3365   -1.0461    0.0000 C   0  0  0  0  0  0  0  0  0  0  0  0
  1  2  1  0  0  0  0
  2  3  1  0  0  0  0
  3  4  2  0  0  0  0
  4  5  1  0  0  0  0
  5  6  2  0  0  0  0
  6  7  1  0  0  0  0
  2  7  2  0  0  0  0
  1  8  2  0  0  0  0
  1  9  1  0  0  0  0
  5 10  1  0  0  0  0
  4 11  1  0  0  0  0
M  END
> <#>
491

> <PLATE>
LAT007

> <ROW>
C

> <COL>
3

> <COORD>
C03

> <LATID>
LAT007C03

> <Supplier>
Aldrich

> <Suplier_CAT#>
D149403

> <Name>
3,4-Dimethylbenzoic Acid

> <Concentration_(mM)>
2.5

> <IC50_(µM)>
>100

> <Yeast_Active?>
-

> <Pubchem_CID>
12073

$$$$
