
  -ISIS-  08130814242D

  7  6  0  0  0  0  0  0  0  0999 V2000
   -3.3932    2.8581    0.0000 C   0  0  0  0  0  0  0  0  0  0  0  0
   -2.6204    2.4120    0.0000 C   0  0  0  0  0  0  0  0  0  0  0  0
   -1.8476    2.8581    0.0000 Cl  0  0  0  0  0  0  0  0  0  0  0  0
   -4.1660    2.4120    0.0000 P   0  0  3  0  0  0  0  0  0  0  0  0
   -3.7198    1.6392    0.0000 O   0  0  0  0  0  0  0  0  0  0  0  0
   -4.9387    1.9658    0.0000 O   0  0  0  0  0  0  0  0  0  0  0  0
   -4.6121    3.1848    0.0000 O   0  0  0  0  0  0  0  0  0  0  0  0
  1  2  1  0  0  0  0
  2  3  1  0  0  0  0
  1  4  1  0  0  0  0
  4  5  2  0  0  0  0
  4  6  1  0  0  0  0
  4  7  1  0  0  0  0
M  END
> <#>
463

> <PLATE>
LAT006

> <ROW>
G

> <COL>
9

> <COORD>
G09

> <LATID>
LAT006G09

> <Supplier>
Sigma

> <Suplier_CAT#>
C0143

> <Name>
Ethephon

> <Concentration_(mM)>
2.5

> <IC50_(µM)>
15

> <Yeast_Active?>
-

> <Pubchem_CID>
27982

$$$$
