
  -ISIS-  08130814242D

 24 26  0  0  0  0  0  0  0  0999 V2000
    0.7167    0.6958    0.0000 C   0  0  0  0  0  0  0  0  0  0  0  0
    0.3500    1.6458    0.0000 C   0  0  0  0  0  0  0  0  0  0  0  0
   -0.9833    0.6333    0.0000 C   0  0  0  0  0  0  0  0  0  0  0  0
   -0.1208    0.0333    0.0000 S   0  0  0  0  0  0  0  0  0  0  0  0
   -0.6625    1.6458    0.0000 C   0  0  0  0  0  0  0  0  0  0  0  0
   -1.9500    0.2833    0.0000 C   0  0  0  0  0  0  0  0  0  0  0  0
    1.7042    0.4458    0.0000 N   0  0  0  0  0  0  0  0  0  0  0  0
    0.9292    2.5000    0.0000 C   0  0  0  0  0  0  0  0  0  0  0  0
   -2.7333    0.9500    0.0000 O   0  0  0  0  0  0  0  0  0  0  0  0
   -2.1333   -0.7167    0.0000 C   0  0  0  0  0  0  0  0  0  0  0  0
    0.5042    3.4458    0.0000 O   0  0  0  0  0  0  0  0  0  0  0  0
    2.0000   -0.5500    0.0000 C   0  0  0  0  0  0  0  0  0  0  0  0
    2.5500   -2.5667    0.0000 C   0  0  0  0  0  0  0  0  0  0  0  0
    1.2667   -1.3000    0.0000 C   0  0  0  0  0  0  0  0  0  0  0  0
    3.0042   -0.8042    0.0000 C   0  0  0  0  0  0  0  0  0  0  0  0
    3.2875   -1.8042    0.0000 C   0  0  0  0  0  0  0  0  0  0  0  0
    1.5500   -2.3042    0.0000 C   0  0  0  0  0  0  0  0  0  0  0  0
    1.9667    2.4625    0.0000 C   0  0  0  0  0  0  0  0  0  0  0  0
   -1.3500   -1.4000    0.0000 C   0  0  0  0  0  0  0  0  0  0  0  0
   -3.1208   -1.0542    0.0000 C   0  0  0  0  0  0  0  0  0  0  0  0
    2.8042   -3.5667    0.0000 C   0  0  0  0  0  0  0  0  0  0  0  0
   -1.5458   -2.4292    0.0000 C   0  0  0  0  0  0  0  0  0  0  0  0
   -3.3125   -2.0875    0.0000 C   0  0  0  0  0  0  0  0  0  0  0  0
   -2.5208   -2.7667    0.0000 C   0  0  0  0  0  0  0  0  0  0  0  0
  2  1  2  0  0  0  0
  3  4  1  0  0  0  0
  4  1  1  0  0  0  0
  5  2  1  0  0  0  0
  6  3  1  0  0  0  0
  7  1  1  0  0  0  0
  8  2  1  0  0  0  0
  9  6  2  0  0  0  0
 10  6  1  0  0  0  0
 11  8  2  0  0  0  0
 12  7  1  0  0  0  0
 13 16  2  0  0  0  0
 14 12  1  0  0  0  0
 15 12  2  0  0  0  0
 16 15  1  0  0  0  0
 17 14  2  0  0  0  0
 18  8  1  0  0  0  0
 19 10  2  0  0  0  0
 20 10  1  0  0  0  0
 21 13  1  0  0  0  0
 22 19  1  0  0  0  0
 23 20  2  0  0  0  0
 24 23  1  0  0  0  0
  3  5  2  0  0  0  0
 17 13  1  0  0  0  0
 22 24  2  0  0  0  0
M  END
> <#>
874

> <PLATE>
LAT011

> <ROW>
B

> <COL>
11

> <COORD>
B11

> <LATID>
LAT011B11

> <Supplier>
Chembridge

> <Suplier_CAT#>
5670043

> <Name>
Novel

> <Sec_Name>
210_D05

> <Concentration_(mM)>
2.5

> <IC50_(µM)>
23

> <Yeast_Active?>
-

> <Pubchem_CID>
867783

$$$$
