
  -ISIS-  08130814242D

 20 21  0  0  0  0  0  0  0  0999 V2000
   -0.9958    0.0458    0.0000 N   0  0  0  0  0  0  0  0  0  0  0  0
   -0.9958    1.2125    0.0000 C   0  0  0  0  0  0  0  0  0  0  0  0
    0.0000   -0.5292    0.0000 C   0  0  0  0  0  0  0  0  0  0  0  0
    0.0000   -1.7000    0.0000 N   0  0  0  0  0  0  0  0  0  0  0  0
    2.0000   -1.7000    0.0000 C   0  0  0  0  0  0  0  0  0  0  0  0
    1.0000    0.0500    0.0000 S   0  0  0  0  0  0  0  0  0  0  0  0
    0.0042    1.7833    0.0000 O   0  0  0  0  0  0  0  0  0  0  0  0
   -2.0125    1.8000    0.0000 C   0  0  0  0  0  0  0  0  0  0  0  0
    1.0000   -2.2667    0.0000 C   0  0  0  0  0  0  0  0  0  0  0  0
    3.0000   -2.2667    0.0000 C   0  0  0  0  0  0  0  0  0  0  0  0
    2.9792   -3.4500    0.0000 Cl  0  0  0  0  0  0  0  0  0  0  0  0
    2.0000   -0.5500    0.0000 C   0  0  0  0  0  0  0  0  0  0  0  0
   -3.0208    1.2125    0.0000 C   0  0  0  0  0  0  0  0  0  0  0  0
   -2.0125    2.9833    0.0000 C   0  0  0  0  0  0  0  0  0  0  0  0
    4.0042   -1.7000    0.0000 C   0  0  0  0  0  0  0  0  0  0  0  0
    3.0000    0.0458    0.0000 C   0  0  0  0  0  0  0  0  0  0  0  0
   -3.0208    3.5708    0.0000 C   0  0  0  0  0  0  0  0  0  0  0  0
    4.0042   -0.5042    0.0000 C   0  0  0  0  0  0  0  0  0  0  0  0
   -4.0458    1.8000    0.0000 C   0  0  0  0  0  0  0  0  0  0  0  0
   -4.0458    2.9833    0.0000 C   0  0  0  0  0  0  0  0  0  0  0  0
  2  1  1  0  0  0  0
  3  1  1  0  0  0  0
  4  3  1  0  0  0  0
  5  9  1  0  0  0  0
  6  3  2  0  0  0  0
  7  2  2  0  0  0  0
  8  2  1  0  0  0  0
  9  4  1  0  0  0  0
 10  5  1  0  0  0  0
 11 10  1  0  0  0  0
 12  5  2  0  0  0  0
 13  8  1  0  0  0  0
 14  8  2  0  0  0  0
 15 10  2  0  0  0  0
 16 12  1  0  0  0  0
 17 14  1  0  0  0  0
 18 16  2  0  0  0  0
 19 13  2  0  0  0  0
 20 17  2  0  0  0  0
 19 20  1  0  0  0  0
 15 18  1  0  0  0  0
M  END
> <#>
839

> <PLATE>
LAT011

> <ROW>
G

> <COL>
6

> <COORD>
G06

> <LATID>
LAT011G06

> <Supplier>
Chembridge

> <Suplier_CAT#>
5635041

> <Name>
Novel

> <Sec_Name>
192_D10

> <Concentration_(mM)>
2.5

> <IC50_(µM)>
19

> <Yeast_Active?>
-

> <Pubchem_CID>
854367

$$$$
