
  -ISIS-  08130814242D

 17 18  0  0  0  0  0  0  0  0999 V2000
    5.5417   -3.4292    0.0000 S   0  0  3  0  0  0  0  0  0  0  0  0
    6.3542   -3.6042    0.0000 C   0  0  0  0  0  0  0  0  0  0  0  0
    4.7292   -3.2542    0.0000 C   0  0  0  0  0  0  0  0  0  0  0  0
    5.7167   -2.6167    0.0000 O   0  0  0  0  0  0  0  0  0  0  0  0
    5.3667   -4.2417    0.0000 O   0  0  0  0  0  0  0  0  0  0  0  0
    6.9125   -2.9917    0.0000 C   0  0  0  0  0  0  0  0  0  0  0  0
    4.4792   -2.4667    0.0000 C   0  0  0  0  0  0  0  0  0  0  0  0
    4.1792   -3.8667    0.0000 C   0  0  0  0  0  0  0  0  0  0  0  0
    6.6125   -4.3792    0.0000 C   0  0  0  0  0  0  0  0  0  0  0  0
    3.1167   -2.9042    0.0000 C   0  0  0  0  0  0  0  0  0  0  0  0
    7.9667   -3.9500    0.0000 C   0  0  0  0  0  0  0  0  0  0  0  0
    2.3125   -2.7167    0.0000 N   0  0  0  0  0  0  0  0  0  0  0  0
    8.7875   -4.1167    0.0000 N   0  0  0  0  0  0  0  0  0  0  0  0
    3.3750   -3.6917    0.0000 C   0  0  0  0  0  0  0  0  0  0  0  0
    7.7125   -3.1667    0.0000 C   0  0  0  0  0  0  0  0  0  0  0  0
    3.6750   -2.2917    0.0000 C   0  0  0  0  0  0  0  0  0  0  0  0
    7.4167   -4.5625    0.0000 C   0  0  0  0  0  0  0  0  0  0  0  0
  2  1  1  0  0  0  0
  3  1  1  0  0  0  0
  4  1  2  0  0  0  0
  5  1  2  0  0  0  0
  6  2  2  0  0  0  0
  7  3  2  0  0  0  0
  8  3  1  0  0  0  0
  9  2  1  0  0  0  0
 10 14  1  0  0  0  0
 11 17  1  0  0  0  0
 12 10  1  0  0  0  0
 13 11  1  0  0  0  0
 14  8  2  0  0  0  0
 15  6  1  0  0  0  0
 16  7  1  0  0  0  0
 17  9  2  0  0  0  0
 16 10  2  0  0  0  0
 11 15  2  0  0  0  0
M  END
> <#>
49

> <PLATE>
LAT001

> <ROW>
A

> <COL>
8

> <COORD>
A08

> <LATID>
LAT001A08

> <Supplier>
Microsource

> <Suplier_CAT#>
01500222

> <Name>
Dapsone

> <Concentration_(mM)>
2.5

> <IC50_(µM)>
14

> <Yeast_Active?>
-

> <Pubchem_CID>
2955

> <Description>
Antibacterial (Leprostatic), Dermatitis Herpetiformis Suppressant

$$$$
