
  -ISIS-  08130814242D

 22 24  0  0  0  0  0  0  0  0999 V2000
    1.8542   -3.7792    0.0000 C   0  0  0  0  0  0  0  0  0  0  0  0
    1.2000   -3.3000    0.0000 N   0  0  3  0  0  0  0  0  0  0  0  0
    2.6500   -3.5292    0.0000 N   0  0  0  0  0  0  0  0  0  0  0  0
    1.6042   -4.5667    0.0000 S   0  0  0  0  0  0  0  0  0  0  0  0
    0.5292   -3.7792    0.0000 C   0  0  0  0  0  0  0  0  0  0  0  0
    3.2542   -4.0792    0.0000 C   0  0  0  0  0  0  0  0  0  0  0  0
    1.1875   -2.4667    0.0000 C   0  0  0  0  0  0  0  0  0  0  0  0
    0.7792   -4.5667    0.0000 C   0  0  0  0  0  0  0  0  0  0  0  0
    1.9042   -2.0542    0.0000 C   0  0  0  0  0  0  0  0  0  0  0  0
    3.0875   -4.8875    0.0000 O   0  0  0  0  0  0  0  0  0  0  0  0
   -0.2500   -3.5292    0.0000 O   0  0  0  0  0  0  0  0  0  0  0  0
    4.0500   -3.8292    0.0000 C   0  0  0  0  0  0  0  0  0  0  0  0
    2.6167   -2.4667    0.0000 Cl  0  0  0  0  0  0  0  0  0  0  0  0
    0.4792   -2.0542    0.0000 C   0  0  0  0  0  0  0  0  0  0  0  0
    1.9042   -1.2375    0.0000 C   0  0  0  0  0  0  0  0  0  0  0  0
    4.6500   -4.3792    0.0000 C   0  0  0  0  0  0  0  0  0  0  0  0
    4.2042   -3.0167    0.0000 C   0  0  0  0  0  0  0  0  0  0  0  0
    0.4667   -1.2375    0.0000 C   0  0  0  0  0  0  0  0  0  0  0  0
    5.0000   -2.7667    0.0000 C   0  0  0  0  0  0  0  0  0  0  0  0
    5.4375   -4.1292    0.0000 C   0  0  0  0  0  0  0  0  0  0  0  0
    1.1875   -0.8167    0.0000 C   0  0  0  0  0  0  0  0  0  0  0  0
    5.6042   -3.3167    0.0000 C   0  0  0  0  0  0  0  0  0  0  0  0
  2  1  1  0  0  0  0
  3  1  2  0  0  0  0
  4  1  1  0  0  0  0
  5  2  1  0  0  0  0
  6  3  1  0  0  0  0
  7  2  1  0  0  0  0
  8  4  1  0  0  0  0
  9  7  2  0  0  0  0
 10  6  2  0  0  0  0
 11  5  2  0  0  0  0
 12  6  1  0  0  0  0
 13  9  1  0  0  0  0
 14  7  1  0  0  0  0
 15  9  1  0  0  0  0
 16 12  2  0  0  0  0
 17 12  1  0  0  0  0
 18 14  2  0  0  0  0
 19 17  2  0  0  0  0
 20 16  1  0  0  0  0
 21 18  1  0  0  0  0
 22 19  1  0  0  0  0
  5  8  1  0  0  0  0
 15 21  2  0  0  0  0
 20 22  2  0  0  0  0
M  END
> <#>
784

> <PLATE>
LAT010

> <ROW>
H

> <COL>
9

> <COORD>
H09

> <LATID>
LAT010H09

> <Supplier>
Chembridge

> <Suplier_CAT#>
5621876

> <Name>
Novel

> <Sec_Name>
188_D09

> <Concentration_(mM)>
2.5

> <IC50_(µM)>
58

> <Yeast_Active?>
-

> <Pubchem_CID>
1352303

$$$$
