
  -ISIS-  08130814242D

 18 20  0  0  0  0  0  0  0  0999 V2000
   -0.7500   -1.5042    0.0000 C   0  0  0  0  0  0  0  0  0  0  0  0
    0.0292   -2.0500    0.0000 C   0  0  0  0  0  0  0  0  0  0  0  0
   -1.2333   -2.9875    0.0000 N   0  0  0  0  0  0  0  0  0  0  0  0
   -1.5333   -2.0500    0.0000 C   0  0  0  0  0  0  0  0  0  0  0  0
   -0.2708   -2.9875    0.0000 N   0  0  0  0  0  0  0  0  0  0  0  0
    0.9167   -1.7167    0.0000 C   0  0  0  0  0  0  0  0  0  0  0  0
   -2.4208   -1.7167    0.0000 C   0  0  0  0  0  0  0  0  0  0  0  0
   -0.7500   -0.5542    0.0000 N   0  0  0  0  0  0  0  0  0  0  0  0
    1.0792   -0.7792    0.0000 C   0  0  0  0  0  0  0  0  0  0  0  0
    1.6500   -2.3292    0.0000 C   0  0  0  0  0  0  0  0  0  0  0  0
   -2.5833   -0.7792    0.0000 C   0  0  0  0  0  0  0  0  0  0  0  0
   -3.1500   -2.3292    0.0000 C   0  0  0  0  0  0  0  0  0  0  0  0
   -4.0625   -1.9875    0.0000 C   0  0  0  0  0  0  0  0  0  0  0  0
   -3.4833   -0.4375    0.0000 C   0  0  0  0  0  0  0  0  0  0  0  0
    1.9792   -0.4375    0.0000 C   0  0  0  0  0  0  0  0  0  0  0  0
    2.5542   -1.9875    0.0000 C   0  0  0  0  0  0  0  0  0  0  0  0
   -4.2208   -1.0542    0.0000 C   0  0  0  0  0  0  0  0  0  0  0  0
    2.7167   -1.0542    0.0000 C   0  0  0  0  0  0  0  0  0  0  0  0
  2  1  2  0  0  0  0
  3  4  2  0  0  0  0
  4  1  1  0  0  0  0
  5  2  1  0  0  0  0
  6  2  1  0  0  0  0
  7  4  1  0  0  0  0
  8  1  1  0  0  0  0
  9  6  1  0  0  0  0
 10  6  2  0  0  0  0
 11  7  2  0  0  0  0
 12  7  1  0  0  0  0
 13 12  2  0  0  0  0
 14 11  1  0  0  0  0
 15  9  2  0  0  0  0
 16 10  1  0  0  0  0
 17 13  1  0  0  0  0
 18 16  2  0  0  0  0
  3  5  1  0  0  0  0
 14 17  2  0  0  0  0
 18 15  1  0  0  0  0
M  END
> <#>
695

> <PLATE>
LAT009

> <ROW>
G

> <COL>
8

> <COORD>
G08

> <LATID>
LAT009G08

> <Supplier>
Chembridge

> <Suplier_CAT#>
5557230

> <Name>
Novel

> <Sec_Name>
165_G11

> <Concentration_(mM)>
2.5

> <IC50_(µM)>
56

> <Yeast_Active?>
-

> <Pubchem_CID>
NULL

$$$$
