
  -ISIS-  08130814242D

 25 26  0  0  0  0  0  0  0  0999 V2000
   -2.8333    1.7000    0.0000 C   0  0  0  0  0  0  0  0  0  0  0  0
   -1.7333    1.6833    0.0000 C   0  0  0  0  0  0  0  0  0  0  0  0
   -3.3708    2.0208    0.0000 N   0  3  0  0  0  0  0  0  0  0  0  0
   -2.2958    2.0000    0.0000 C   0  0  0  0  0  0  0  0  0  0  0  0
   -1.7333    1.0625    0.0000 C   0  0  0  0  0  0  0  0  0  0  0  0
   -2.2958    0.7458    0.0000 N   0  0  0  0  0  0  0  0  0  0  0  0
   -2.8333    1.0625    0.0000 C   0  0  0  0  0  0  0  0  0  0  0  0
   -1.1708    2.0000    0.0000 C   0  0  0  0  0  0  0  0  0  0  0  0
   -0.0958    0.7208    0.0000 C   0  0  0  0  0  0  0  0  0  0  0  0
   -1.1958    0.7208    0.0000 N   0  0  0  0  0  0  0  0  0  0  0  0
   -0.5958    2.3208    0.0000 N   0  0  0  0  0  0  0  0  0  0  0  0
   -3.3708    2.6625    0.0000 O   0  5  0  0  0  0  0  0  0  0  0  0
   -3.9333    1.7208    0.0000 O   0  0  0  0  0  0  0  0  0  0  0  0
   -0.6333    1.0458    0.0000 C   0  0  0  0  0  0  0  0  0  0  0  0
   -0.0958    0.0833    0.0000 C   0  0  0  0  0  0  0  0  0  0  0  0
    0.4667    1.0458    0.0000 C   0  0  0  0  0  0  0  0  0  0  0  0
    0.4667   -0.2375    0.0000 C   0  0  0  0  0  0  0  0  0  0  0  0
    1.0042    0.7208    0.0000 C   0  0  0  0  0  0  0  0  0  0  0  0
   -2.3125    2.6458    0.0000 C   0  0  0  0  0  0  0  0  0  0  0  0
    1.0042    0.0625    0.0000 C   0  0  0  0  0  0  0  0  0  0  0  0
   -3.4125    0.7208    0.0000 C   0  0  0  0  0  0  0  0  0  0  0  0
   -0.6333   -0.2542    0.0000 O   0  0  0  0  0  0  0  0  0  0  0  0
    1.5667    1.0833    0.0000 O   0  0  0  0  0  0  0  0  0  0  0  0
   -0.6333   -0.8792    0.0000 C   0  0  0  0  0  0  0  0  0  0  0  0
    2.1292    0.7833    0.0000 C   0  0  0  0  0  0  0  0  0  0  0  0
  2  4  1  0  0  0  0
  3  1  1  0  0  0  0
  4  1  2  0  0  0  0
  5  6  1  0  0  0  0
  6  7  2  0  0  0  0
  7  1  1  0  0  0  0
  8  2  1  0  0  0  0
  9 14  1  0  0  0  0
 10  5  1  0  0  0  0
 11  8  3  0  0  0  0
 12  3  1  0  0  0  0
 13  3  2  0  0  0  0
 14 10  1  0  0  0  0
 15  9  2  0  0  0  0
 16  9  1  0  0  0  0
 17 15  1  0  0  0  0
 18 16  2  0  0  0  0
 19  4  1  0  0  0  0
 20 18  1  0  0  0  0
 21  7  1  0  0  0  0
 22 15  1  0  0  0  0
 23 18  1  0  0  0  0
 24 22  1  0  0  0  0
 25 23  1  0  0  0  0
  2  5  2  0  0  0  0
 17 20  2  0  0  0  0
M  CHG  2   3   1  12  -1
M  END
> <#>
1081

> <PLATE>
LAT014

> <ROW>
A

> <COL>
7

> <COORD>
A07

> <LATID>
LAT014A07

> <Supplier>
Chembridge

> <Suplier_CAT#>
5647267

> <Name>
Novel

> <Concentration_(mM)>
2.5

> <IC50_(µM)>
inactive

> <Yeast_Active?>
-

> <Pubchem_CID>
2857588

$$$$
