
  -ISIS-  08130814242D

 30 33  0  0  0  0  0  0  0  0999 V2000
    1.6000   -1.0667    0.0000 N   0  0  0  0  0  0  0  0  0  0  0  0
    2.1292   -0.7542    0.0000 N   0  0  3  0  0  0  0  0  0  0  0  0
    1.0542   -0.1167    0.0000 C   0  0  0  0  0  0  0  0  0  0  0  0
    1.0542   -0.7542    0.0000 C   0  0  0  0  0  0  0  0  0  0  0  0
    2.1292   -0.1167    0.0000 C   0  0  0  0  0  0  0  0  0  0  0  0
   -1.0125   -0.1292    0.0000 C   0  0  0  0  0  0  0  0  0  0  0  0
    0.0167   -0.1292    0.0000 N   0  0  0  0  0  0  0  0  0  0  0  0
    0.5292   -1.0667    0.0000 C   0  0  0  0  0  0  0  0  0  0  0  0
    0.5292    0.1625    0.0000 C   0  0  0  0  0  0  0  0  0  0  0  0
    2.6875   -1.0875    0.0000 C   0  0  0  0  0  0  0  0  0  0  0  0
   -0.4958    0.1958    0.0000 N   0  0  0  0  0  0  0  0  0  0  0  0
   -1.0125   -0.7042    0.0000 O   0  0  0  0  0  0  0  0  0  0  0  0
   -2.6500    0.8208    0.0000 N   0  0  0  0  0  0  0  0  0  0  0  0
   -1.5708    0.1833    0.0000 C   0  0  0  0  0  0  0  0  0  0  0  0
    0.5292   -1.7000    0.0000 C   0  0  0  0  0  0  0  0  0  0  0  0
   -0.0125   -0.7375    0.0000 C   0  0  0  0  0  0  0  0  0  0  0  0
   -0.5708   -1.7000    0.0000 C   0  0  0  0  0  0  0  0  0  0  0  0
   -0.0125   -2.0042    0.0000 C   0  0  0  0  0  0  0  0  0  0  0  0
   -0.5708   -1.0667    0.0000 C   0  0  0  0  0  0  0  0  0  0  0  0
   -1.1208   -2.0042    0.0000 O   0  0  0  0  0  0  0  0  0  0  0  0
   -2.1125    1.1125    0.0000 C   0  0  0  0  0  0  0  0  0  0  0  0
   -2.6500    0.1833    0.0000 C   0  0  0  0  0  0  0  0  0  0  0  0
    3.2292   -0.7792    0.0000 C   0  0  0  0  0  0  0  0  0  0  0  0
   -1.5708    0.8208    0.0000 C   0  0  0  0  0  0  0  0  0  0  0  0
    2.6875   -1.7167    0.0000 C   0  0  0  0  0  0  0  0  0  0  0  0
   -2.1125   -0.0917    0.0000 C   0  0  0  0  0  0  0  0  0  0  0  0
   -1.6625   -1.7000    0.0000 C   0  0  0  0  0  0  0  0  0  0  0  0
    3.2292   -2.0292    0.0000 C   0  0  0  0  0  0  0  0  0  0  0  0
    3.7875   -1.0875    0.0000 C   0  0  0  0  0  0  0  0  0  0  0  0
    3.7875   -1.7167    0.0000 C   0  0  0  0  0  0  0  0  0  0  0  0
  2  1  1  0  0  0  0
  3  4  1  0  0  0  0
  4  1  2  0  0  0  0
  5  2  1  0  0  0  0
  6 11  1  0  0  0  0
  7  9  2  0  0  0  0
  8  4  1  0  0  0  0
  9  3  1  0  0  0  0
 10  2  1  0  0  0  0
 11  7  1  0  0  0  0
 12  6  2  0  0  0  0
 13 22  1  0  0  0  0
 14  6  1  0  0  0  0
 15  8  2  0  0  0  0
 16  8  1  0  0  0  0
 17 19  1  0  0  0  0
 18 15  1  0  0  0  0
 19 16  2  0  0  0  0
 20 17  1  0  0  0  0
 21 24  1  0  0  0  0
 22 26  2  0  0  0  0
 23 10  2  0  0  0  0
 24 14  2  0  0  0  0
 25 10  1  0  0  0  0
 26 14  1  0  0  0  0
 27 20  1  0  0  0  0
 28 25  2  0  0  0  0
 29 23  1  0  0  0  0
 30 28  1  0  0  0  0
  3  5  2  0  0  0  0
 18 17  2  0  0  0  0
 30 29  2  0  0  0  0
 21 13  2  0  0  0  0
M  END
> <#>
967

> <PLATE>
LAT013

> <ROW>
G

> <COL>
2

> <COORD>
G02

> <LATID>
LAT013G02

> <Supplier>
Chembridge

> <Suplier_CAT#>
5748185

> <Name>
Novel

> <Sec_Name>
237_H09

> <Concentration_(mM)>
2.5

> <IC50_(µM)>
>100

> <Yeast_Active?>
-

> <Pubchem_CID>
1364083

$$$$
