
  -ISIS-  08130814242D

 11 11  0  0  0  0  0  0  0  0999 V2000
    4.7083   -1.5479    0.0000 C   0  0  0  0  0  0  0  0  0  0  0  0
    3.4583   -1.5479    0.0000 C   0  0  0  0  0  0  0  0  0  0  0  0
    2.8333   -2.6304    0.0000 C   0  0  0  0  0  0  0  0  0  0  0  0
    1.5833   -2.6304    0.0000 C   0  0  0  0  0  0  0  0  0  0  0  0
    0.9583   -1.5479    0.0000 C   0  0  0  0  0  0  0  0  0  0  0  0
    1.5833   -0.4654    0.0000 C   0  0  0  0  0  0  0  0  0  0  0  0
    2.8333   -0.4654    0.0000 C   0  0  0  0  0  0  0  0  0  0  0  0
    5.3333   -0.4654    0.0000 O   0  0  0  0  0  0  0  0  0  0  0  0
    5.3333   -2.6304    0.0000 O   0  0  0  0  0  0  0  0  0  0  0  0
    0.9583    0.6171    0.0000 O   0  0  0  0  0  0  0  0  0  0  0  0
    3.4583   -3.7130    0.0000 O   0  0  0  0  0  0  0  0  0  0  0  0
  1  2  1  0  0  0  0
  2  3  1  0  0  0  0
  3  4  2  0  0  0  0
  4  5  1  0  0  0  0
  5  6  2  0  0  0  0
  6  7  1  0  0  0  0
  2  7  2  0  0  0  0
  1  8  2  0  0  0  0
  1  9  1  0  0  0  0
  6 10  1  0  0  0  0
  3 11  1  0  0  0  0
M  END
> <#>
348

> <PLATE>
LAT005

> <ROW>
D

> <COL>
5

> <COORD>
D05

> <LATID>
LAT005D05

> <Supplier>
Aldrich

> <Suplier_CAT#>
149357

> <Name>
2,5-Dihydroxybenzoic Acid

> <Concentration_(mM)>
2.5

> <IC50_(µM)>
inactive

> <Yeast_Active?>
-

> <Pubchem_CID>
3469

$$$$
