
  -ISIS-  08130814242D

 20 21  0  0  0  0  0  0  0  0999 V2000
   -3.2833    1.1000    0.0000 C   0  0  0  0  0  0  0  0  0  0  0  0
   -4.6000    3.3458    0.0000 C   0  0  0  0  0  0  0  0  0  0  0  0
   -0.7625    0.8625    0.0000 C   0  0  0  0  0  0  0  0  0  0  0  0
   -7.1500    3.3458    0.0000 N   0  0  0  0  0  0  0  0  0  0  0  0
   -4.2958   -1.3500    0.0000 C   0  0  0  0  0  0  0  0  0  0  0  0
   -0.1833   -1.7167    0.0000 O   0  0  0  0  0  0  0  0  0  0  0  0
   -2.3625   -3.0042    0.0000 C   0  0  0  0  0  0  0  0  0  0  0  0
   -3.2833    5.5167    0.0000 O   0  0  0  0  0  0  0  0  0  0  0  0
  -11.0167   10.0500    0.0000 C   0  0  0  0  0  0  0  0  0  0  0  0
  -12.2667   12.2542    0.0000 N   0  0  3  0  0  0  0  0  0  0  0  0
   -8.4542    5.5875    0.0000 C   0  0  0  0  0  0  0  0  0  0  0  0
   -8.4542   10.0500    0.0000 C   0  0  0  0  0  0  0  0  0  0  0  0
  -12.3167    7.8375    0.0000 C   0  0  0  0  0  0  0  0  0  0  0  0
   -7.1875    7.8000    0.0000 C   0  0  0  0  0  0  0  0  0  0  0  0
  -11.0167    5.6292    0.0000 C   0  0  0  0  0  0  0  0  0  0  0  0
    0.9792    2.8208    0.0000 C   0  0  0  0  0  0  0  0  0  0  0  0
  -14.6667   12.0500    0.0000 C   0  0  0  0  0  0  0  0  0  0  0  0
  -11.1292   14.7167    0.0000 C   0  0  0  0  0  0  0  0  0  0  0  0
   -8.8167   14.4542    0.0000 C   0  0  0  0  0  0  0  0  0  0  0  0
  -16.0000   13.5042    0.0000 C   0  0  0  0  0  0  0  0  0  0  0  0
  2  1  1  0  0  0  0
  3  1  2  0  0  0  0
  4  2  1  0  0  0  0
  5  1  1  0  0  0  0
  6  3  1  0  0  0  0
  7  5  2  0  0  0  0
  8  2  2  0  0  0  0
  9 13  1  0  0  0  0
 10  9  1  0  0  0  0
 11  4  1  0  0  0  0
 12 14  1  0  0  0  0
 13 15  2  0  0  0  0
 14 11  2  0  0  0  0
 15 11  1  0  0  0  0
 16  3  1  0  0  0  0
 17 10  1  0  0  0  0
 18 10  1  0  0  0  0
 19 18  1  0  0  0  0
 20 17  1  0  0  0  0
  7  6  1  0  0  0  0
  9 12  2  0  0  0  0
M  END
> <#>
928

> <PLATE>
LAT012

> <ROW>
H

> <COL>
7

> <COORD>
H07

> <LATID>
LAT012H07

> <Supplier>
Chembridge

> <Suplier_CAT#>
5695191

> <Name>
Novel

> <Sec_Name>
222_G03

> <Concentration_(mM)>
2.5

> <IC50_(µM)>
100

> <Yeast_Active?>
-

> <Pubchem_CID>
757896

$$$$
