
  -ISIS-  08130814242D

 26 29  0  0  0  0  0  0  0  0999 V2000
    6.4292   -4.6167    0.0000 N   0  3  0  0  0  0  0  0  0  0  0  0
    6.4292   -3.7917    0.0000 C   0  0  0  0  0  0  0  0  0  0  0  0
    5.0000   -4.6167    0.0000 C   0  0  0  0  0  0  0  0  0  0  0  0
    7.1417   -3.3792    0.0000 C   0  0  0  0  0  0  0  0  0  0  0  0
    5.7167   -5.0292    0.0000 C   0  0  0  0  0  0  0  0  0  0  0  0
    5.7167   -3.3792    0.0000 C   0  0  0  0  0  0  0  0  0  0  0  0
    7.8542   -3.7917    0.0000 C   0  0  0  0  0  0  0  0  0  0  0  0
    7.1417   -2.5500    0.0000 C   0  0  0  0  0  0  0  0  0  0  0  0
    4.2875   -5.0292    0.0000 C   0  0  0  0  0  0  0  0  0  0  0  0
    5.0000   -3.7917    0.0000 C   0  0  0  0  0  0  0  0  0  0  0  0
    7.8542   -2.1375    0.0000 C   0  0  0  0  0  0  0  0  0  0  0  0
    8.5750   -2.5500    0.0000 C   0  0  0  0  0  0  0  0  0  0  0  0
    8.5750   -3.3792    0.0000 C   0  0  0  0  0  0  0  0  0  0  0  0
    7.1417   -5.0292    0.0000 C   0  0  0  0  0  0  0  0  0  0  0  0
    8.0250   -1.3292    0.0000 O   0  0  0  0  0  0  0  0  0  0  0  0
    9.1875   -1.9917    0.0000 O   0  0  0  0  0  0  0  0  0  0  0  0
    3.5667   -4.6167    0.0000 C   0  0  0  0  0  0  0  0  0  0  0  0
    8.8417   -1.2417    0.0000 C   0  0  0  0  0  0  0  0  0  0  0  0
    7.8542   -4.6167    0.0000 C   0  0  0  0  0  0  0  0  0  0  0  0
    4.2875   -3.3792    0.0000 C   0  0  0  0  0  0  0  0  0  0  0  0
    3.5667   -3.7917    0.0000 C   0  0  0  0  0  0  0  0  0  0  0  0
    4.2875   -5.8542    0.0000 O   0  0  0  0  0  0  0  0  0  0  0  0
    2.8500   -5.0292    0.0000 O   0  0  0  0  0  0  0  0  0  0  0  0
    3.5750   -6.2667    0.0000 C   0  0  0  0  0  0  0  0  0  0  0  0
    2.8417   -5.8542    0.0000 C   0  0  0  0  0  0  0  0  0  0  0  0
    6.6042   -5.6542    0.0000 Cl  0  5  0  0  0  0  0  0  0  0  0  0
  2  1  1  0  0  0  0
  3  5  1  0  0  0  0
  4  2  1  0  0  0  0
  5  1  2  0  0  0  0
  6  2  2  0  0  0  0
  7 19  1  0  0  0  0
  8  4  1  0  0  0  0
  9  3  1  0  0  0  0
 10  3  2  0  0  0  0
 11  8  2  0  0  0  0
 12 13  2  0  0  0  0
 13  7  1  0  0  0  0
 14  1  1  0  0  0  0
 15 11  1  0  0  0  0
 16 12  1  0  0  0  0
 17  9  2  0  0  0  0
 18 15  1  0  0  0  0
 19 14  1  0  0  0  0
 20 10  1  0  0  0  0
 21 20  2  0  0  0  0
 22  9  1  0  0  0  0
 23 17  1  0  0  0  0
 24 22  1  0  0  0  0
 25 23  1  0  0  0  0
  7  4  2  0  0  0  0
 10  6  1  0  0  0  0
 12 11  1  0  0  0  0
 17 21  1  0  0  0  0
 18 16  1  0  0  0  0
M  CHG  2   1   1  26  -1
M  END
> <#>
129

> <PLATE>
LAT002

> <ROW>
A

> <COL>
8

> <COORD>
A08

> <LATID>
LAT002A08

> <Supplier>
Microsource

> <Suplier_CAT#>
01500811

> <Name>
Berberine Chloride

> <Concentration_(mM)>
2.5

> <IC50_(µM)>
42

> <Yeast_Active?>
-

> <Pubchem_CID>
2353

> <Description>
Antipyretic, Antimalarial

$$$$
