
  -ISIS-  08130814242D

 21 23  0  0  0  0  0  0  0  0999 V2000
   -2.1833    1.6125    0.0000 C   0  0  0  0  0  0  0  0  0  0  0  0
   -2.7625    2.1125    0.0000 N   0  0  0  0  0  0  0  0  0  0  0  0
   -3.4000    1.7125    0.0000 C   0  0  0  0  0  0  0  0  0  0  0  0
   -3.2208    0.9708    0.0000 O   0  0  0  0  0  0  0  0  0  0  0  0
   -2.4833    0.9333    0.0000 C   0  0  0  0  0  0  0  0  0  0  0  0
   -1.4208    1.7708    0.0000 C   0  0  0  0  0  0  0  0  0  0  0  0
   -1.1833    2.4708    0.0000 N   0  0  0  0  0  0  0  0  0  0  0  0
   -4.0625    2.0958    0.0000 C   0  0  0  0  0  0  0  0  0  0  0  0
   -2.0625    0.2958    0.0000 O   0  0  0  0  0  0  0  0  0  0  0  0
   -0.4458    2.6333    0.0000 C   0  0  0  0  0  0  0  0  0  0  0  0
   -0.1833    3.3333    0.0000 C   0  0  0  0  0  0  0  0  0  0  0  0
   -0.6833    3.9333    0.0000 I   0  0  0  0  0  0  0  0  0  0  0  0
   -4.0625    2.8500    0.0000 C   0  0  0  0  0  0  0  0  0  0  0  0
   -4.7083    1.7125    0.0000 C   0  0  0  0  0  0  0  0  0  0  0  0
    0.0542    2.0500    0.0000 C   0  0  0  0  0  0  0  0  0  0  0  0
    0.5542    3.4958    0.0000 C   0  0  0  0  0  0  0  0  0  0  0  0
    0.8167    2.2125    0.0000 C   0  0  0  0  0  0  0  0  0  0  0  0
    1.0542    2.9125    0.0000 C   0  0  0  0  0  0  0  0  0  0  0  0
   -4.7083    3.2333    0.0000 C   0  0  0  0  0  0  0  0  0  0  0  0
   -5.3625    2.0958    0.0000 C   0  0  0  0  0  0  0  0  0  0  0  0
   -5.3625    2.8500    0.0000 C   0  0  0  0  0  0  0  0  0  0  0  0
  2  1  1  0  0  0  0
  3  2  2  0  0  0  0
  4  5  1  0  0  0  0
  5  1  1  0  0  0  0
  6  1  2  0  0  0  0
  7  6  1  0  0  0  0
  8  3  1  0  0  0  0
  9  5  2  0  0  0  0
 10  7  1  0  0  0  0
 11 10  2  0  0  0  0
 12 11  1  0  0  0  0
 13  8  1  0  0  0  0
 14  8  2  0  0  0  0
 15 10  1  0  0  0  0
 16 11  1  0  0  0  0
 17 15  2  0  0  0  0
 18 17  1  0  0  0  0
 19 13  2  0  0  0  0
 20 14  1  0  0  0  0
 21 20  2  0  0  0  0
  4  3  1  0  0  0  0
 18 16  2  0  0  0  0
 19 21  1  0  0  0  0
M  END
> <#>
849

> <PLATE>
LAT011

> <ROW>
A

> <COL>
8

> <COORD>
A08

> <LATID>
LAT011A08

> <Supplier>
Chembridge

> <Suplier_CAT#>
5648663

> <Name>
Ioxazone

> <Sec_Name>
201_H06

> <Concentration_(mM)>
2.5

> <IC50_(µM)>
24

> <Yeast_Active?>
-

> <Pubchem_CID>
NULL

$$$$
