
  -ISIS-  08130814242D

 21 22  0  0  0  0  0  0  0  0999 V2000
    0.4500    1.0333    0.0000 C   0  0  0  0  0  0  0  0  0  0  0  0
    3.8292    0.6833    0.0000 O   0  0  0  0  0  0  0  0  0  0  0  0
    3.1375    1.0125    0.0000 C   0  0  0  0  0  0  0  0  0  0  0  0
    1.8042    1.0333    0.0000 N   0  0  0  0  0  0  0  0  0  0  0  0
    4.3792    1.2208    0.0000 C   0  0  0  0  0  0  0  0  0  0  0  0
    3.2375    1.7958    0.0000 C   0  0  0  0  0  0  0  0  0  0  0  0
    4.0042    1.9333    0.0000 C   0  0  0  0  0  0  0  0  0  0  0  0
   -0.2333    0.6458    0.0000 C   0  0  3  0  0  0  0  0  0  0  0  0
   -0.9125    1.0333    0.0000 O   0  0  0  0  0  0  0  0  0  0  0  0
    2.4667    0.6458    0.0000 C   0  0  0  0  0  0  0  0  0  0  0  0
    1.1292    0.6458    0.0000 N   0  0  0  0  0  0  0  0  0  0  0  0
    0.4500    1.8125    0.0000 O   0  0  0  0  0  0  0  0  0  0  0  0
   -1.5958    0.6458    0.0000 C   0  0  0  0  0  0  0  0  0  0  0  0
   -2.2708    1.0333    0.0000 C   0  0  0  0  0  0  0  0  0  0  0  0
   -2.9500    0.6458    0.0000 C   0  0  0  0  0  0  0  0  0  0  0  0
   -3.6333    1.0625    0.0000 Cl  0  0  0  0  0  0  0  0  0  0  0  0
   -2.2708   -0.5292    0.0000 C   0  0  0  0  0  0  0  0  0  0  0  0
    5.1667    1.1333    0.0000 C   0  0  0  0  0  0  0  0  0  0  0  0
   -1.5958   -0.1375    0.0000 C   0  0  0  0  0  0  0  0  0  0  0  0
   -0.2333   -0.1375    0.0000 C   0  0  0  0  0  0  0  0  0  0  0  0
   -2.9500   -0.1375    0.0000 C   0  0  0  0  0  0  0  0  0  0  0  0
  2  3  1  0  0  0  0
  3 10  1  0  0  0  0
  4 11  1  0  0  0  0
  5  2  1  0  0  0  0
  6  3  2  0  0  0  0
  7  6  1  0  0  0  0
  8  1  1  0  0  0  0
  9  8  1  0  0  0  0
 10  4  2  0  0  0  0
 11  1  1  0  0  0  0
 12  1  2  0  0  0  0
 13  9  1  0  0  0  0
 14 13  1  0  0  0  0
 15 14  2  0  0  0  0
 16 15  1  0  0  0  0
 17 19  1  0  0  0  0
 18  5  1  0  0  0  0
 19 13  2  0  0  0  0
 20  8  1  0  0  0  0
 21 17  2  0  0  0  0
  5  7  2  0  0  0  0
 21 15  1  0  0  0  0
M  END
> <#>
710

> <PLATE>
LAT009

> <ROW>
F

> <COL>
10

> <COORD>
F10

> <LATID>
LAT009F10

> <Supplier>
Chembridge

> <Suplier_CAT#>
5542523

> <Name>
Novel

> <Sec_Name>
159_C10

> <Concentration_(mM)>
2.5

> <IC50_(µM)>
65

> <Yeast_Active?>
-

> <Pubchem_CID>
871380

$$$$
