
  -ISIS-  08130814242D

 28 30  0  0  0  0  0  0  0  0999 V2000
    3.8000    1.2833    0.0000 S   0  0  3  0  0  0  0  0  0  0  0  0
    4.6792    1.3000    0.0000 N   0  0  0  0  0  0  0  0  0  0  0  0
    5.1000    0.5458    0.0000 C   0  0  0  0  0  0  0  0  0  0  0  0
    5.9542    0.3625    0.0000 N   0  0  0  0  0  0  0  0  0  0  0  0
    2.9375    1.2833    0.0000 C   0  0  0  0  0  0  0  0  0  0  0  0
    4.6792   -0.2167    0.0000 S   0  0  0  0  0  0  0  0  0  0  0  0
    3.8000    2.1625    0.0000 O   0  0  0  0  0  0  0  0  0  0  0  0
    3.8167    0.4000    0.0000 O   0  0  0  0  0  0  0  0  0  0  0  0
   -2.7000   -0.9792    0.0000 C   0  0  0  0  0  0  0  0  0  0  0  0
   -0.1000    0.5208    0.0000 C   0  0  0  0  0  0  0  0  0  0  0  0
   -3.5833   -0.9792    0.0000 C   0  0  0  0  0  0  0  0  0  0  0  0
   -2.2833   -0.2375    0.0000 C   0  0  0  0  0  0  0  0  0  0  0  0
    0.3375    1.2833    0.0000 N   0  0  0  0  0  0  0  0  0  0  0  0
    6.0542   -0.4792    0.0000 C   0  0  0  0  0  0  0  0  0  0  0  0
   -1.4000   -0.2375    0.0000 O   0  0  0  0  0  0  0  0  0  0  0  0
    5.2542   -0.8542    0.0000 C   0  0  0  0  0  0  0  0  0  0  0  0
    0.3375   -0.2375    0.0000 O   0  0  0  0  0  0  0  0  0  0  0  0
    2.5000    0.5000    0.0000 C   0  0  0  0  0  0  0  0  0  0  0  0
    2.5000    2.0208    0.0000 C   0  0  0  0  0  0  0  0  0  0  0  0
   -2.7000    0.5458    0.0000 C   0  0  0  0  0  0  0  0  0  0  0  0
   -4.0000   -0.2375    0.0000 C   0  0  0  0  0  0  0  0  0  0  0  0
   -0.9833    0.5208    0.0000 C   0  0  0  0  0  0  0  0  0  0  0  0
    1.2000    1.2833    0.0000 C   0  0  0  0  0  0  0  0  0  0  0  0
   -2.2625   -1.7375    0.0000 Cl  0  0  0  0  0  0  0  0  0  0  0  0
   -3.5625    0.5458    0.0000 C   0  0  0  0  0  0  0  0  0  0  0  0
    1.6375    2.0208    0.0000 C   0  0  0  0  0  0  0  0  0  0  0  0
    1.6375    0.5208    0.0000 C   0  0  0  0  0  0  0  0  0  0  0  0
   -4.8833   -0.2375    0.0000 Cl  0  0  0  0  0  0  0  0  0  0  0  0
  2  1  1  0  0  0  0
  3  2  1  0  0  0  0
  4  3  2  0  0  0  0
  5  1  1  0  0  0  0
  6  3  1  0  0  0  0
  7  1  2  0  0  0  0
  8  1  2  0  0  0  0
  9 12  1  0  0  0  0
 10 13  1  0  0  0  0
 11  9  2  0  0  0  0
 12 15  1  0  0  0  0
 13 23  1  0  0  0  0
 14  4  1  0  0  0  0
 15 22  1  0  0  0  0
 16  6  1  0  0  0  0
 17 10  2  0  0  0  0
 18  5  1  0  0  0  0
 19  5  2  0  0  0  0
 20 12  2  0  0  0  0
 21 25  2  0  0  0  0
 22 10  1  0  0  0  0
 23 26  2  0  0  0  0
 24  9  1  0  0  0  0
 25 20  1  0  0  0  0
 26 19  1  0  0  0  0
 27 18  2  0  0  0  0
 28 21  1  0  0  0  0
 23 27  1  0  0  0  0
 14 16  2  0  0  0  0
 21 11  1  0  0  0  0
M  END
> <#>
722

> <PLATE>
LAT010

> <ROW>
B

> <COL>
2

> <COORD>
B02

> <LATID>
LAT010B02

> <Supplier>
Chembridge

> <Suplier_CAT#>
5564923

> <Name>
Novel

> <Sec_Name>
171_E09

> <Concentration_(mM)>
2.5

> <IC50_(µM)>
6

> <Yeast_Active?>
-

> <Pubchem_CID>
4747649

$$$$
