
  -ISIS-  08130814242D

 25 29  0  0  0  0  0  0  0  0999 V2000
   -0.6458    0.8208    0.0000 N   0  0  3  0  0  0  0  0  0  0  0  0
   -0.6458    1.5208    0.0000 C   0  0  0  0  0  0  0  0  0  0  0  0
   -1.2458    0.4833    0.0000 C   0  0  0  0  0  0  0  0  0  0  0  0
    0.0167    0.6208    0.0000 N   0  0  0  0  0  0  0  0  0  0  0  0
   -1.8458    0.8208    0.0000 C   0  0  0  0  0  0  0  0  0  0  0  0
   -1.2458    1.8833    0.0000 N   0  0  0  0  0  0  0  0  0  0  0  0
    0.0167    1.7458    0.0000 C   0  0  0  0  0  0  0  0  0  0  0  0
    0.4167    1.1625    0.0000 C   0  0  0  0  0  0  0  0  0  0  0  0
   -1.8458    1.5458    0.0000 C   0  0  0  0  0  0  0  0  0  0  0  0
    1.1042    1.2708    0.0000 C   0  0  0  0  0  0  0  0  0  0  0  0
    2.4875    1.5125    0.0000 C   0  0  0  0  0  0  0  0  0  0  0  0
   -1.2458   -0.2375    0.0000 O   0  0  0  0  0  0  0  0  0  0  0  0
    1.3542    1.9333    0.0000 C   0  0  0  0  0  0  0  0  0  0  0  0
    1.5500    0.7500    0.0000 C   0  0  0  0  0  0  0  0  0  0  0  0
    2.0500    2.0500    0.0000 C   0  0  0  0  0  0  0  0  0  0  0  0
    2.2375    0.8708    0.0000 C   0  0  0  0  0  0  0  0  0  0  0  0
    3.1792    1.6125    0.0000 C   0  0  0  0  0  0  0  0  0  0  0  0
   -2.5000    0.6333    0.0000 C   0  0  0  0  0  0  0  0  0  0  0  0
   -2.4958    1.7458    0.0000 C   0  0  0  0  0  0  0  0  0  0  0  0
   -2.9000    1.2208    0.0000 C   0  0  0  0  0  0  0  0  0  0  0  0
    3.6167    1.0708    0.0000 C   0  0  0  0  0  0  0  0  0  0  0  0
    3.4292    2.2500    0.0000 C   0  0  0  0  0  0  0  0  0  0  0  0
    4.1167    2.3625    0.0000 C   0  0  0  0  0  0  0  0  0  0  0  0
    4.3042    1.1833    0.0000 C   0  0  0  0  0  0  0  0  0  0  0  0
    4.5667    1.8333    0.0000 C   0  0  0  0  0  0  0  0  0  0  0  0
  2  1  1  0  0  0  0
  3  1  1  0  0  0  0
  4  1  1  0  0  0  0
  5  3  2  0  0  0  0
  6  2  1  0  0  0  0
  7  2  2  0  0  0  0
  8  4  2  0  0  0  0
  9  5  1  0  0  0  0
 10  8  1  0  0  0  0
 11 16  2  0  0  0  0
 12  3  1  0  0  0  0
 13 10  1  0  0  0  0
 14 10  2  0  0  0  0
 15 13  2  0  0  0  0
 16 14  1  0  0  0  0
 17 11  1  0  0  0  0
 18  5  1  0  0  0  0
 19  9  1  0  0  0  0
 20 18  1  0  0  0  0
 21 17  2  0  0  0  0
 22 17  1  0  0  0  0
 23 22  2  0  0  0  0
 24 21  1  0  0  0  0
 25 23  1  0  0  0  0
  7  8  1  0  0  0  0
  6  9  2  0  0  0  0
 20 19  1  0  0  0  0
 11 15  1  0  0  0  0
 24 25  2  0  0  0  0
M  END
> <#>
1082

> <PLATE>
LAT014

> <ROW>
B

> <COL>
7

> <COORD>
B07

> <LATID>
LAT014B07

> <Supplier>
Chembridge

> <Suplier_CAT#>
5647260

> <Name>
Novel

> <Concentration_(mM)>
2.5

> <IC50_(µM)>
inactive

> <Yeast_Active?>
-

> <Pubchem_CID>
NULL

$$$$
