
  -ISIS-  08130814242D

 48 51  0  0  0  0  0  0  0  0999 V2000
    3.2042   -2.2042    0.0000 C   0  0  3  0  0  0  0  0  0  0  0  0
    2.4917   -3.4292    0.0000 C   0  0  2  0  0  0  0  0  0  0  0  0
    9.8042   -2.5792    0.0000 O   0  0  0  0  0  0  0  0  0  0  0  0
    8.1292   -2.1667    0.0000 O   0  0  0  0  0  0  0  0  0  0  0  0
   10.6042   -2.7542    0.0000 C   0  0  1  0  0  0  0  0  0  0  0  0
    6.6667   -2.0917    0.0000 C   0  0  1  0  0  0  0  0  0  0  0  0
    8.7417   -1.6167    0.0000 C   0  0  1  0  0  0  0  0  0  0  0  0
    3.2042   -3.0292    0.0000 O   0  0  0  0  0  0  0  0  0  0  0  0
    2.4917   -4.2542    0.0000 C   0  0  1  0  0  0  0  0  0  0  0  0
    7.4167   -1.7542    0.0000 C   0  0  3  0  0  0  0  0  0  0  0  0
    9.5542   -1.7917    0.0000 C   0  0  3  0  0  0  0  0  0  0  0  0
    1.9417   -5.5792    0.0000 C   0  0  1  0  0  0  0  0  0  0  0  0
    5.9542   -1.6792    0.0000 O   0  0  0  0  0  0  0  0  0  0  0  0
    3.9167   -2.6167    0.0000 O   0  0  0  0  0  0  0  0  0  0  0  0
    1.7917   -3.0292    0.0000 C   0  0  1  0  0  0  0  0  0  0  0  0
    1.8292   -4.7542    0.0000 C   0  0  2  0  0  0  0  0  0  0  0  0
    4.5292   -2.0667    0.0000 C   0  0  2  0  0  0  0  0  0  0  0  0
    2.4917   -1.7792    0.0000 C   0  0  0  0  0  0  0  0  0  0  0  0
    2.7042   -5.8917    0.0000 C   0  0  0  0  0  0  0  0  0  0  0  0
    1.7917   -2.2042    0.0000 C   0  0  2  0  0  0  0  0  0  0  0  0
    5.3417   -2.2292    0.0000 C   0  0  1  0  0  0  0  0  0  0  0  0
    7.5917   -0.9542    0.0000 C   0  0  2  0  0  0  0  0  0  0  0  0
   10.1042   -1.1792    0.0000 C   0  0  2  0  0  0  0  0  0  0  0  0
    8.4167   -0.8667    0.0000 C   0  0  0  0  0  0  0  0  0  0  0  0
   11.1667   -2.1417    0.0000 C   0  0  1  0  0  0  0  0  0  0  0  0
   10.9167   -1.3542    0.0000 C   0  0  0  0  0  0  0  0  0  0  0  0
    6.4917   -2.9042    0.0000 C   0  0  0  0  0  0  0  0  0  0  0  0
    2.8167   -6.7042    0.0000 O   0  5  0  0  0  0  0  0  0  0  0  0
    4.2042   -1.3042    0.0000 C   0  0  0  0  0  0  0  0  0  0  0  0
    3.3542   -5.3917    0.0000 O   0  0  0  0  0  0  0  0  0  0  0  0
    3.3792   -1.3917    0.0000 C   0  0  0  0  0  0  0  0  0  0  0  0
    5.6792   -2.9917    0.0000 C   0  0  0  0  0  0  0  0  0  0  0  0
   10.8542   -3.5417    0.0000 O   0  0  0  0  0  0  0  0  0  0  0  0
    1.0667   -4.4417    0.0000 O   0  0  0  0  0  0  0  0  0  0  0  0
    1.0667   -1.7917    0.0000 O   0  0  0  0  0  0  0  0  0  0  0  0
   11.4042   -2.9667    0.0000 C   0  0  0  0  0  0  0  0  0  0  0  0
    6.6667   -1.2667    0.0000 C   0  0  0  0  0  0  0  0  0  0  0  0
    1.2792   -6.0792    0.0000 C   0  0  0  0  0  0  0  0  0  0  0  0
    3.2917   -4.4667    0.0000 C   0  0  0  0  0  0  0  0  0  0  0  0
    1.0667   -3.4417    0.0000 C   0  0  0  0  0  0  0  0  0  0  0  0
    4.5292   -2.8917    0.0000 C   0  0  0  0  0  0  0  0  0  0  0  0
    7.0417   -0.3417    0.0000 C   0  0  0  0  0  0  0  0  0  0  0  0
    9.8542   -0.3917    0.0000 C   0  0  0  0  0  0  0  0  0  0  0  0
   11.9542   -2.3542    0.0000 C   0  0  0  0  0  0  0  0  0  0  0  0
    0.4167   -4.9417    0.0000 C   0  0  0  0  0  0  0  0  0  0  0  0
   11.6167   -3.7667    0.0000 C   0  0  0  0  0  0  0  0  0  0  0  0
    5.9417   -0.8667    0.0000 C   0  0  0  0  0  0  0  0  0  0  0  0
    4.6417   -6.1792    0.0000 Na  0  3  0  0  0  0  0  0  0  0  0  0
  2  8  1  0  0  0  0
  3 11  1  0  0  0  0
  4 10  1  0  0  0  0
  5  3  1  0  0  0  0
  6 13  1  0  0  0  0
  7  4  1  0  0  0  0
  8  1  1  0  0  0  0
  2  9  1  6  0  0  0
 10  6  1  0  0  0  0
  7 11  1  6  0  0  0
 12 16  1  0  0  0  0
 21 13  1  6  0  0  0
 14  1  1  0  0  0  0
 15 20  1  0  0  0  0
 16  9  1  0  0  0  0
 17 14  1  0  0  0  0
 18  1  1  0  0  0  0
 19 12  1  0  0  0  0
 20 18  1  0  0  0  0
 21 17  1  0  0  0  0
 22 10  1  0  0  0  0
 23 11  1  0  0  0  0
 24 22  1  0  0  0  0
 25 26  1  0  0  0  0
 26 23  1  0  0  0  0
 27 32  1  0  0  0  0
 28 19  1  0  0  0  0
 29 31  1  0  0  0  0
 30 19  2  0  0  0  0
 31  1  1  0  0  0  0
 32 21  1  0  0  0  0
  5 33  1  1  0  0  0
 16 34  1  6  0  0  0
 20 35  1  1  0  0  0
  5 36  1  6  0  0  0
  6 37  1  1  0  0  0
 12 38  1  1  0  0  0
  9 39  1  6  0  0  0
 15 40  1  6  0  0  0
 17 41  1  6  0  0  0
 22 42  1  1  0  0  0
 23 43  1  1  0  0  0
 25 44  1  1  0  0  0
 45 34  1  0  0  0  0
 46 36  1  0  0  0  0
 47 37  1  0  0  0  0
 17 29  1  0  0  0  0
 15  2  1  0  0  0  0
 27  6  1  0  0  0  0
  7 24  1  0  0  0  0
  5 25  1  0  0  0  0
M  CHG  2  28  -1  48   1
M  END
> <#>
55

> <PLATE>
LAT001

> <ROW>
G

> <COL>
8

> <COORD>
G08

> <LATID>
LAT001G08

> <Supplier>
Microsource

> <Suplier_CAT#>
01502258

> <Name>
Monensin Sodium 

> <Concentration_(mM)>
2.5

> <IC50_(µM)>
0.27

> <Yeast_Active?>
-

> <Pubchem_CID>
5702247

> <Description>
Antiprotozal

> <Comment>
Monensin A is shown

> <Source>
Natural product; Natural Product; ex Streptomyces cinnamonensis

> <LATCA_Notes>
Sodium ionophore that alters Golgi function and secretion

$$$$
