
  -ISIS-  08130814242D

 28 30  0  0  0  0  0  0  0  0999 V2000
   -0.8000   -1.5292    0.0000 S   0  0  3  0  0  0  0  0  0  0  0  0
   -0.7833   -0.5875    0.0000 N   0  0  3  0  0  0  0  0  0  0  0  0
    0.0375   -0.1292    0.0000 C   0  0  0  0  0  0  0  0  0  0  0  0
    0.0542    0.8333    0.0000 C   0  0  0  0  0  0  0  0  0  0  0  0
   -1.7458   -1.5042    0.0000 O   0  0  0  0  0  0  0  0  0  0  0  0
    0.1375   -1.5500    0.0000 O   0  0  0  0  0  0  0  0  0  0  0  0
   -0.8208   -2.4667    0.0000 C   0  0  0  0  0  0  0  0  0  0  0  0
   -1.6000   -0.0875    0.0000 C   0  0  0  0  0  0  0  0  0  0  0  0
    0.8792    1.2958    0.0000 N   0  0  0  0  0  0  0  0  0  0  0  0
    0.8875    2.2333    0.0000 C   0  0  0  0  0  0  0  0  0  0  0  0
   -0.7458    1.3333    0.0000 O   0  0  0  0  0  0  0  0  0  0  0  0
    1.7042    2.7083    0.0000 C   0  0  0  0  0  0  0  0  0  0  0  0
   -2.4000   -0.5667    0.0000 C   0  0  0  0  0  0  0  0  0  0  0  0
   -1.6000    0.8708    0.0000 C   0  0  0  0  0  0  0  0  0  0  0  0
    1.7042    3.6500    0.0000 C   0  0  0  0  0  0  0  0  0  0  0  0
   -2.4000    1.3333    0.0000 C   0  0  0  0  0  0  0  0  0  0  0  0
   -3.2208   -0.0875    0.0000 C   0  0  0  0  0  0  0  0  0  0  0  0
   -3.2458    0.8500    0.0000 C   0  0  0  0  0  0  0  0  0  0  0  0
    2.5292    4.1167    0.0000 Br  0  0  0  0  0  0  0  0  0  0  0  0
    0.0875    3.6708    0.0000 C   0  0  0  0  0  0  0  0  0  0  0  0
    0.0875    2.7125    0.0000 C   0  0  0  0  0  0  0  0  0  0  0  0
   -0.0208   -2.9500    0.0000 C   0  0  0  0  0  0  0  0  0  0  0  0
   -1.6458   -2.9292    0.0000 C   0  0  0  0  0  0  0  0  0  0  0  0
    0.8875    4.1292    0.0000 C   0  0  0  0  0  0  0  0  0  0  0  0
   -4.0833    1.3125    0.0000 C   0  0  0  0  0  0  0  0  0  0  0  0
   -1.6625   -3.8667    0.0000 C   0  0  0  0  0  0  0  0  0  0  0  0
   -0.0458   -3.8875    0.0000 C   0  0  0  0  0  0  0  0  0  0  0  0
   -0.8625   -4.3500    0.0000 C   0  0  0  0  0  0  0  0  0  0  0  0
  2  1  1  0  0  0  0
  3  2  1  0  0  0  0
  4  3  1  0  0  0  0
  5  1  2  0  0  0  0
  6  1  2  0  0  0  0
  7  1  1  0  0  0  0
  8  2  1  0  0  0  0
  9  4  1  0  0  0  0
 10  9  1  0  0  0  0
 11  4  2  0  0  0  0
 12 10  1  0  0  0  0
 13  8  1  0  0  0  0
 14  8  2  0  0  0  0
 15 12  2  0  0  0  0
 16 14  1  0  0  0  0
 17 13  2  0  0  0  0
 18 16  2  0  0  0  0
 19 15  1  0  0  0  0
 20 21  1  0  0  0  0
 21 10  2  0  0  0  0
 22  7  1  0  0  0  0
 23  7  2  0  0  0  0
 24 20  2  0  0  0  0
 25 18  1  0  0  0  0
 26 23  1  0  0  0  0
 27 22  2  0  0  0  0
 28 26  2  0  0  0  0
 28 27  1  0  0  0  0
 18 17  1  0  0  0  0
 24 15  1  0  0  0  0
M  END
> <#>
672

> <PLATE>
LAT009

> <ROW>
H

> <COL>
5

> <COORD>
H05

> <LATID>
LAT009H05

> <Supplier>
Chembridge

> <Suplier_CAT#>
5532243

> <Name>
Novel

> <Sec_Name>
153_F09

> <Concentration_(mM)>
2.5

> <IC50_(µM)>
>100

> <Yeast_Active?>
-

> <Pubchem_CID>
1368205

$$$$
