
  -ISIS-  08130814242D

 24 26  0  0  0  0  0  0  0  0999 V2000
   -2.0708    0.4458    0.0000 C   0  0  0  0  0  0  0  0  0  0  0  0
   -1.3208    0.8833    0.0000 C   0  0  0  0  0  0  0  0  0  0  0  0
   -2.0708   -0.4042    0.0000 C   0  0  0  0  0  0  0  0  0  0  0  0
   -2.8125    0.8708    0.0000 N   0  0  0  0  0  0  0  0  0  0  0  0
   -0.5625    0.4500    0.0000 N   0  0  0  0  0  0  0  0  0  0  0  0
   -0.5625   -2.1375    0.0000 C   0  0  0  0  0  0  0  0  0  0  0  0
   -3.5500    0.4625    0.0000 C   0  0  0  0  0  0  0  0  0  0  0  0
    0.2000   -1.6875    0.0000 C   0  0  0  0  0  0  0  0  0  0  0  0
   -0.3625   -2.9875    0.0000 O   0  0  0  0  0  0  0  0  0  0  0  0
   -1.3125   -0.8375    0.0000 C   0  0  0  0  0  0  0  0  0  0  0  0
    0.8500   -2.2375    0.0000 O   0  0  0  0  0  0  0  0  0  0  0  0
    0.5167   -3.0542    0.0000 C   0  0  0  0  0  0  0  0  0  0  0  0
   -1.3000   -1.7042    0.0000 C   0  0  0  0  0  0  0  0  0  0  0  0
   -1.3208    1.7458    0.0000 O   0  0  0  0  0  0  0  0  0  0  0  0
   -3.5458   -0.4292    0.0000 O   0  0  0  0  0  0  0  0  0  0  0  0
    0.1875   -0.8292    0.0000 C   0  0  0  0  0  0  0  0  0  0  0  0
    0.1875    0.8958    0.0000 C   0  0  0  0  0  0  0  0  0  0  0  0
   -0.5708   -0.4000    0.0000 C   0  0  0  0  0  0  0  0  0  0  0  0
   -4.3208    0.9000    0.0000 C   0  0  0  0  0  0  0  0  0  0  0  0
    0.9292    0.4625    0.0000 C   0  0  0  0  0  0  0  0  0  0  0  0
    0.1792    1.7625    0.0000 C   0  0  0  0  0  0  0  0  0  0  0  0
    0.9042    2.2083    0.0000 C   0  0  0  0  0  0  0  0  0  0  0  0
    1.6792    0.9000    0.0000 C   0  0  0  0  0  0  0  0  0  0  0  0
    1.6667    1.7833    0.0000 C   0  0  0  0  0  0  0  0  0  0  0  0
  2  1  1  0  0  0  0
  3  1  2  0  0  0  0
  4  1  1  0  0  0  0
  5  2  1  0  0  0  0
  6 13  2  0  0  0  0
  7  4  1  0  0  0  0
  8 16  2  0  0  0  0
  9  6  1  0  0  0  0
 10  3  1  0  0  0  0
 11  8  1  0  0  0  0
 12  9  1  0  0  0  0
 13 10  1  0  0  0  0
 14  2  2  0  0  0  0
 15  7  2  0  0  0  0
 16 18  1  0  0  0  0
 17  5  1  0  0  0  0
 18 10  2  0  0  0  0
 19  7  1  0  0  0  0
 20 17  2  0  0  0  0
 21 17  1  0  0  0  0
 22 21  2  0  0  0  0
 23 20  1  0  0  0  0
 24 22  1  0  0  0  0
  8  6  1  0  0  0  0
 12 11  1  0  0  0  0
 23 24  2  0  0  0  0
M  END
> <#>
650

> <PLATE>
LAT009

> <ROW>
B

> <COL>
3

> <COORD>
B03

> <LATID>
LAT009B03

> <Supplier>
Chembridge

> <Suplier_CAT#>
5525597

> <Name>
Novel

> <Sec_Name>
151_C04

> <Concentration_(mM)>
2.5

> <IC50_(µM)>
31

> <Yeast_Active?>
-

> <Pubchem_CID>
1916775

$$$$
