
  -ISIS-  08130814242D

 20 21  0  0  0  0  0  0  0  0999 V2000
    0.2875   -1.9000    0.0000 C   0  0  3  0  0  0  0  0  0  0  0  0
    2.8875   -1.9042    0.0000 N   0  0  0  0  0  0  0  0  0  0  0  0
    0.9375   -1.5292    0.0000 C   0  0  0  0  0  0  0  0  0  0  0  0
    1.5875   -1.9042    0.0000 C   0  0  0  0  0  0  0  0  0  0  0  0
    2.2375   -1.5375    0.0000 N   0  0  0  0  0  0  0  0  0  0  0  0
    3.5375   -1.5375    0.0000 C   0  0  0  0  0  0  0  0  0  0  0  0
    4.1875   -1.9167    0.0000 C   0  0  0  0  0  0  0  0  0  0  0  0
    0.2042   -2.6500    0.0000 O   0  0  0  0  0  0  0  0  0  0  0  0
   -0.3833   -1.6000    0.0000 O   0  0  0  0  0  0  0  0  0  0  0  0
    4.8375   -1.5500    0.0000 C   0  0  0  0  0  0  0  0  0  0  0  0
    1.5875   -2.6542    0.0000 O   0  0  0  0  0  0  0  0  0  0  0  0
    5.4875   -1.9167    0.0000 C   0  0  0  0  0  0  0  0  0  0  0  0
    6.1375   -1.5500    0.0000 I   0  0  0  0  0  0  0  0  0  0  0  0
    0.2542   -1.1500    0.0000 C   0  0  0  0  0  0  0  0  0  0  0  0
    4.1875   -2.6667    0.0000 C   0  0  0  0  0  0  0  0  0  0  0  0
    4.8292   -3.0500    0.0000 C   0  0  0  0  0  0  0  0  0  0  0  0
   -0.8958   -2.1500    0.0000 C   0  0  0  0  0  0  0  0  0  0  0  0
   -0.5125   -2.8000    0.0000 C   0  0  0  0  0  0  0  0  0  0  0  0
    3.5375   -0.7875    0.0000 C   0  0  0  0  0  0  0  0  0  0  0  0
    5.4875   -2.6667    0.0000 C   0  0  0  0  0  0  0  0  0  0  0  0
  2  5  1  0  0  0  0
  3  1  1  0  0  0  0
  4  3  1  0  0  0  0
  5  4  1  0  0  0  0
  6  2  2  0  0  0  0
  7  6  1  0  0  0  0
  8  1  1  0  0  0  0
  9  1  1  0  0  0  0
 10  7  2  0  0  0  0
 11  4  2  0  0  0  0
 12 10  1  0  0  0  0
 13 12  1  0  0  0  0
 14  1  1  0  0  0  0
 15  7  1  0  0  0  0
 16 15  2  0  0  0  0
 17  9  1  0  0  0  0
 18  8  1  0  0  0  0
 19  6  1  0  0  0  0
 20 16  1  0  0  0  0
 17 18  1  0  0  0  0
 20 12  2  0  0  0  0
M  END
> <#>
708

> <PLATE>
LAT009

> <ROW>
D

> <COL>
10

> <COORD>
D10

> <LATID>
LAT009D10

> <Supplier>
Chembridge

> <Suplier_CAT#>
5541122

> <Name>
Novel

> <Sec_Name>
157_H09

> <Concentration_(mM)>
2.5

> <IC50_(µM)>
>100

> <Yeast_Active?>
-

> <Pubchem_CID>
1353424

$$$$
