
  -ISIS-  08130814242D

 17 18  0  0  0  0  0  0  0  0999 V2000
    0.5167    0.0750    0.0000 S   0  0  3  0  0  0  0  0  0  0  0  0
    1.6792    0.0750    0.0000 N   0  0  0  0  0  0  0  0  0  0  0  0
    2.0542   -0.5667    0.0000 C   0  0  0  0  0  0  0  0  0  0  0  0
   -0.2333    0.0708    0.0000 C   0  0  0  0  0  0  0  0  0  0  0  0
    0.9000   -0.5750    0.0000 O   0  0  0  0  0  0  0  0  0  0  0  0
    0.8917    0.7250    0.0000 O   0  0  0  0  0  0  0  0  0  0  0  0
    1.6792   -1.2167    0.0000 N   0  0  0  0  0  0  0  0  0  0  0  0
    2.8042   -0.5667    0.0000 N   0  0  0  0  0  0  0  0  0  0  0  0
   -0.6083    0.7250    0.0000 C   0  0  0  0  0  0  0  0  0  0  0  0
   -0.6000   -0.5792    0.0000 C   0  0  0  0  0  0  0  0  0  0  0  0
   -1.7333    0.0625    0.0000 C   0  0  0  0  0  0  0  0  0  0  0  0
   -2.4833    0.0583    0.0000 N   0  0  0  0  0  0  0  0  0  0  0  0
   -1.3583   -0.5875    0.0000 C   0  0  0  0  0  0  0  0  0  0  0  0
   -1.3583    0.7208    0.0000 C   0  0  0  0  0  0  0  0  0  0  0  0
    2.8042   -1.8667    0.0000 C   0  0  0  0  0  0  0  0  0  0  0  0
    3.1792   -1.2167    0.0000 C   0  0  0  0  0  0  0  0  0  0  0  0
    2.0542   -1.8667    0.0000 C   0  0  0  0  0  0  0  0  0  0  0  0
  2  1  1  0  0  0  0
  3  2  1  0  0  0  0
  4  1  1  0  0  0  0
  5  1  2  0  0  0  0
  6  1  2  0  0  0  0
  7  3  1  0  0  0  0
  8  3  2  0  0  0  0
  9  4  1  0  0  0  0
 10  4  2  0  0  0  0
 11 13  2  0  0  0  0
 12 11  1  0  0  0  0
 13 10  1  0  0  0  0
 14  9  2  0  0  0  0
 15 16  2  0  0  0  0
 16  8  1  0  0  0  0
 17  7  2  0  0  0  0
 14 11  1  0  0  0  0
 17 15  1  0  0  0  0
M  END
> <#>
97

> <PLATE>
LAT002

> <ROW>
A

> <COL>
4

> <COORD>
A04

> <LATID>
LAT002A04

> <Supplier>
Microsource

> <Suplier_CAT#>
01500546

> <Name>
Sulfadiazine

> <Concentration_(mM)>
2.5

> <IC50_(µM)>
0.85

> <Yeast_Active?>
-

> <Pubchem_CID>
5215

> <Description>
Antibacterial

$$$$
