
  -ISIS-  08130814242D

  8  7  0  0  0  0  0  0  0  0999 V2000
   -0.3000   -0.6792    0.0000 N   0  0  3  0  0  0  0  0  0  0  0  0
    1.8042   -1.2792    0.0000 Cl  0  0  0  0  0  0  0  0  0  0  0  0
    0.3500    1.1958    0.0000 Cl  0  0  0  0  0  0  0  0  0  0  0  0
   -0.3000    0.0708    0.0000 C   0  0  0  0  0  0  0  0  0  0  0  0
    0.3500   -1.0542    0.0000 C   0  0  0  0  0  0  0  0  0  0  0  0
   -0.9458   -1.0542    0.0000 C   0  0  0  0  0  0  0  0  0  0  0  0
    0.3500    0.4458    0.0000 C   0  0  0  0  0  0  0  0  0  0  0  0
    1.0000   -0.6792    0.0000 C   0  0  0  0  0  0  0  0  0  0  0  0
  2  8  1  0  0  0  0
  3  7  1  0  0  0  0
  4  1  1  0  0  0  0
  5  1  1  0  0  0  0
  6  1  1  0  0  0  0
  7  4  1  0  0  0  0
  8  5  1  0  0  0  0
M  END
> <#>
174

> <PLATE>
LAT003

> <ROW>
F

> <COL>
3

> <COORD>
F03

> <LATID>
LAT003F03

> <Supplier>
Microsource

> <Suplier_CAT#>
01500375

> <Name>
Mechlorethamine

> <Concentration_(mM)>
2.5

> <IC50_(µM)>
7

> <Yeast_Active?>
+

> <Pubchem_CID>
4033

> <Description>
Antineoplastic, Alkylating Agent

$$$$
