
  -ISIS-  08130814242D

 25 28  0  0  0  0  0  0  0  0999 V2000
    0.6792    1.3708    0.0000 N   0  0  3  0  0  0  0  0  0  0  0  0
    0.3292    0.7958    0.0000 C   0  0  0  0  0  0  0  0  0  0  0  0
    0.3500    1.9958    0.0000 C   0  0  0  0  0  0  0  0  0  0  0  0
   -0.3833    0.8000    0.0000 C   0  0  0  0  0  0  0  0  0  0  0  0
   -0.7000    1.3958    0.0000 C   0  0  0  0  0  0  0  0  0  0  0  0
   -0.3500    1.9833    0.0000 C   0  0  0  0  0  0  0  0  0  0  0  0
   -1.3625    1.3958    0.0000 C   0  0  0  0  0  0  0  0  0  0  0  0
   -1.7125    0.8333    0.0000 C   0  0  0  0  0  0  0  0  0  0  0  0
   -2.4000    0.8458    0.0000 C   0  0  0  0  0  0  0  0  0  0  0  0
   -0.7208    0.2208    0.0000 C   0  0  0  0  0  0  0  0  0  0  0  0
   -1.3833    0.2333    0.0000 C   0  0  0  0  0  0  0  0  0  0  0  0
    0.6875    0.1958    0.0000 O   0  0  0  0  0  0  0  0  0  0  0  0
    0.7000    2.5833    0.0000 O   0  0  0  0  0  0  0  0  0  0  0  0
   -2.7125    1.4333    0.0000 O   0  0  0  0  0  0  0  0  0  0  0  0
   -2.7833    0.2833    0.0000 C   0  0  0  0  0  0  0  0  0  0  0  0
    1.3542    1.3500    0.0000 C   0  0  0  0  0  0  0  0  0  0  0  0
   -0.6625    2.5833    0.0000 C   0  0  0  0  0  0  0  0  0  0  0  0
   -1.6958    2.0208    0.0000 C   0  0  0  0  0  0  0  0  0  0  0  0
   -1.3458    2.6000    0.0000 C   0  0  0  0  0  0  0  0  0  0  0  0
   -3.4958    0.2833    0.0000 C   0  0  0  0  0  0  0  0  0  0  0  0
   -2.4625   -0.3000    0.0000 C   0  0  0  0  0  0  0  0  0  0  0  0
    1.6792    0.7625    0.0000 C   0  0  0  0  0  0  0  0  0  0  0  0
   -2.8000   -0.9167    0.0000 C   0  0  0  0  0  0  0  0  0  0  0  0
   -3.8208   -0.3000    0.0000 C   0  0  0  0  0  0  0  0  0  0  0  0
   -3.4833   -0.8875    0.0000 C   0  0  0  0  0  0  0  0  0  0  0  0
  2  1  1  0  0  0  0
  3  1  1  0  0  0  0
  4  2  1  0  0  0  0
  5  6  1  0  0  0  0
  6  3  1  0  0  0  0
  7  5  2  0  0  0  0
  8  7  1  0  0  0  0
  9  8  1  0  0  0  0
 10  4  2  0  0  0  0
 11 10  1  0  0  0  0
 12  2  2  0  0  0  0
 13  3  2  0  0  0  0
 14  9  2  0  0  0  0
 15  9  1  0  0  0  0
 16  1  1  0  0  0  0
 17  6  2  0  0  0  0
 18 19  2  0  0  0  0
 19 17  1  0  0  0  0
 20 15  2  0  0  0  0
 21 15  1  0  0  0  0
 22 16  1  0  0  0  0
 23 21  2  0  0  0  0
 24 20  1  0  0  0  0
 25 23  1  0  0  0  0
  5  4  1  0  0  0  0
 11  8  2  0  0  0  0
  7 18  1  0  0  0  0
 24 25  2  0  0  0  0
M  END
> <#>
676

> <PLATE>
LAT009

> <ROW>
D

> <COL>
6

> <COORD>
D06

> <LATID>
LAT009D06

> <Supplier>
Chembridge

> <Suplier_CAT#>
5544802

> <Name>
Novel

> <Sec_Name>
160_G09

> <Concentration_(mM)>
2.5

> <IC50_(µM)>
>100

> <Yeast_Active?>
-

> <Pubchem_CID>
2851446

$$$$
