
  -ISIS-  08130814242D

 26 29  0  0  0  0  0  0  0  0999 V2000
    2.9667    0.9458    0.0000 C   0  0  0  0  0  0  0  0  0  0  0  0
   -0.4333    0.8125    0.0000 C   0  0  0  0  0  0  0  0  0  0  0  0
    3.6042    4.2542    0.0000 N   0  0  0  0  0  0  0  0  0  0  0  0
   -2.2458   -2.1875    0.0000 C   0  0  0  0  0  0  0  0  0  0  0  0
    5.1167   -1.5500    0.0000 C   0  0  0  0  0  0  0  0  0  0  0  0
    0.7292    5.9375    0.0000 O   0  0  0  0  0  0  0  0  0  0  0  0
   -1.6833    3.7083    0.0000 C   0  0  0  0  0  0  0  0  0  0  0  0
   -5.6125   -2.1875    0.0000 N   0  0  0  0  0  0  0  0  0  0  0  0
  -12.3792    3.6958    0.0000 C   0  0  0  0  0  0  0  0  0  0  0  0
  -10.6875    0.7208    0.0000 C   0  0  0  0  0  0  0  0  0  0  0  0
  -10.6875    6.6042    0.0000 C   0  0  0  0  0  0  0  0  0  0  0  0
    8.4000   -0.9875    0.0000 C   0  0  0  0  0  0  0  0  0  0  0  0
    4.1292   -4.7792    0.0000 C   0  0  0  0  0  0  0  0  0  0  0  0
  -15.7000    4.3875    0.0000 O   0  0  0  0  0  0  0  0  0  0  0  0
   -7.2917    0.7208    0.0000 C   0  0  0  0  0  0  0  0  0  0  0  0
   -0.6458   -5.1542    0.0000 O   0  0  0  0  0  0  0  0  0  0  0  0
  -12.9542    9.1792    0.0000 O   0  0  0  0  0  0  0  0  0  0  0  0
  -16.0000    7.7792    0.0000 C   0  0  0  0  0  0  0  0  0  0  0  0
   -7.2917    6.6042    0.0000 C   0  0  0  0  0  0  0  0  0  0  0  0
   -5.6125    3.6333    0.0000 C   0  0  0  0  0  0  0  0  0  0  0  0
    9.5167    2.1125    0.0000 Cl  0  0  0  0  0  0  0  0  0  0  0  0
    0.9375   -5.5500    0.0000 Cl  0  0  0  0  0  0  0  0  0  0  0  0
   -4.9583    4.5167    0.0000 C   0  0  0  0  0  0  0  0  0  0  0  0
    9.6000   -6.5875    0.0000 C   0  0  0  0  0  0  0  0  0  0  0  0
    6.2792   -7.2292    0.0000 C   0  0  0  0  0  0  0  0  0  0  0  0
   10.5792   -3.4000    0.0000 C   0  0  0  0  0  0  0  0  0  0  0  0
  2  1  1  0  0  0  0
  3  1  2  0  0  0  0
  4  2  1  0  0  0  0
  5  1  1  0  0  0  0
  6  3  1  0  0  0  0
  7  2  2  0  0  0  0
  8  4  1  0  0  0  0
  9 10  2  0  0  0  0
 10 15  1  0  0  0  0
 11 19  2  0  0  0  0
 12  5  1  0  0  0  0
 13  5  2  0  0  0  0
 14  9  1  0  0  0  0
 15  8  1  0  0  0  0
 16  4  2  0  0  0  0
 17 11  1  0  0  0  0
 18 14  1  0  0  0  0
 19 20  1  0  0  0  0
 20 15  2  0  0  0  0
 21 12  1  0  0  0  0
 22 13  1  0  0  0  0
 23  7  1  0  0  0  0
 24 25  2  0  0  0  0
 25 13  1  0  0  0  0
 26 12  2  0  0  0  0
  7  6  1  0  0  0  0
 24 26  1  0  0  0  0
  9 11  1  0  0  0  0
 18 17  1  0  0  0  0
M  END
> <#>
927

> <PLATE>
LAT012

> <ROW>
G

> <COL>
7

> <COORD>
G07

> <LATID>
LAT012G07

> <Supplier>
Chembridge

> <Suplier_CAT#>
5696031

> <Name>
Novel

> <Sec_Name>
222_D05

> <Concentration_(mM)>
2.5

> <IC50_(µM)>
58

> <Yeast_Active?>
-

> <Pubchem_CID>
1022785

$$$$
