
  -ISIS-  08130814242D

 18 18  0  0  0  0  0  0  0  0999 V2000
    1.5057    0.5717    0.0000 Na  0  3  0  0  0  0  0  0  0  0  0  0
   -0.7251   -0.2010    0.0000 N   0  0  3  0  0  0  0  0  0  0  0  0
   -1.1713   -0.9738    0.0000 C   0  0  0  0  0  0  0  0  0  0  0  0
   -0.7251   -1.7466    0.0000 C   0  0  0  0  0  0  0  0  0  0  0  0
   -1.1713   -2.5194    0.0000 C   0  0  0  0  0  0  0  0  0  0  0  0
   -2.0636   -2.5194    0.0000 C   0  0  0  0  0  0  0  0  0  0  0  0
   -2.5098   -1.7466    0.0000 C   0  0  0  0  0  0  0  0  0  0  0  0
   -2.0636   -0.9738    0.0000 C   0  0  0  0  0  0  0  0  0  0  0  0
   -1.1713    0.5717    0.0000 C   0  0  0  0  0  0  0  0  0  0  0  0
   -2.0636    0.5717    0.0000 C   0  0  0  0  0  0  0  0  0  0  0  0
   -2.5098    1.3445    0.0000 C   0  0  0  0  0  0  0  0  0  0  0  0
   -2.0636    2.1173    0.0000 C   0  0  0  0  0  0  0  0  0  0  0  0
   -1.1713    2.1173    0.0000 C   0  0  0  0  0  0  0  0  0  0  0  0
   -0.7251    1.3445    0.0000 C   0  0  0  0  0  0  0  0  0  0  0  0
    0.1672   -0.2010    0.0000 S   0  0  3  0  0  0  0  0  0  0  0  0
    0.1672    0.6913    0.0000 O   0  0  0  0  0  0  0  0  0  0  0  0
    0.1672   -1.0934    0.0000 O   0  0  0  0  0  0  0  0  0  0  0  0
    1.0595   -0.2010    0.0000 O   0  5  0  0  0  0  0  0  0  0  0  0
  3  4  1  0  0  0  0
  4  5  2  0  0  0  0
  5  6  1  0  0  0  0
  6  7  2  0  0  0  0
  7  8  1  0  0  0  0
  3  8  2  0  0  0  0
  2  3  1  0  0  0  0
  9 10  1  0  0  0  0
 10 11  2  0  0  0  0
 11 12  1  0  0  0  0
 12 13  2  0  0  0  0
 13 14  1  0  0  0  0
  9 14  2  0  0  0  0
  2  9  1  0  0  0  0
 15 16  2  0  0  0  0
 15 17  2  0  0  0  0
 15 18  1  0  0  0  0
  2 15  1  0  0  0  0
M  CHG  2   1   1  18  -1
M  END
> <#>
506

> <PLATE>
LAT007

> <ROW>
B

> <COL>
5

> <COORD>
B05

> <LATID>
LAT007B05

> <Supplier>
Sigma

> <Suplier_CAT#>
D-6892

> <Name>
Diphenylamine Sulfonate Sodium Salt

> <Concentration_(mM)>
2.5

> <IC50_(µM)>
inactive

> <Yeast_Active?>
-

> <Pubchem_CID>
116013

$$$$
