
  -ISIS-  08130814242D

 25 27  0  0  0  0  0  0  0  0999 V2000
    6.2669   -3.9355    0.0000 C   0  0  0  0  0  0  0  0  0  0  0  0
    6.6733   -4.6471    0.0000 N   0  0  0  0  0  0  0  0  0  0  0  0
    7.4909   -4.6498    0.0000 C   0  0  0  0  0  0  0  0  0  0  0  0
    7.9030   -3.9418    0.0000 C   0  0  0  0  0  0  0  0  0  0  0  0
    7.4915   -3.2295    0.0000 C   0  0  0  0  0  0  0  0  0  0  0  0
    6.6753   -3.2303    0.0000 C   0  0  0  0  0  0  0  0  0  0  0  0
    3.7282   -3.8876    0.0000 N   0  0  0  0  0  0  0  0  0  0  0  0
    4.2080   -3.2233    0.0000 C   0  0  0  0  0  0  0  0  0  0  0  0
    3.7148   -2.5514    0.0000 N   0  0  0  0  0  0  0  0  0  0  0  0
    2.9434   -2.8108    0.0000 C   0  0  0  0  0  0  0  0  0  0  0  0
    2.2320   -2.3984    0.0000 C   0  0  0  0  0  0  0  0  0  0  0  0
    1.5176   -2.8130    0.0000 C   0  0  0  0  0  0  0  0  0  0  0  0
    1.5189   -3.6360    0.0000 C   0  0  0  0  0  0  0  0  0  0  0  0
    2.2345   -4.0443    0.0000 C   0  0  0  0  0  0  0  0  0  0  0  0
    2.9447   -3.6338    0.0000 C   0  0  0  0  0  0  0  0  0  0  0  0
    5.0292   -3.2208    0.0000 S   0  0  3  0  0  0  0  0  0  0  0  0
    5.4389   -2.5062    0.0000 O   0  0  0  0  0  0  0  0  0  0  0  0
    5.4438   -3.9341    0.0000 C   0  0  0  0  0  0  0  0  0  0  0  0
    6.5004   -2.5324    0.0000 C   0  0  0  0  0  0  0  0  0  0  0  0
    7.9036   -2.5148    0.0000 O   0  0  0  0  0  0  0  0  0  0  0  0
    8.7250   -2.5125    0.0000 C   0  0  0  0  0  0  0  0  0  0  0  0
    9.1333   -3.2250    0.0000 C   0  0  3  0  0  0  0  0  0  0  0  0
    9.5028   -3.8789    0.0000 F   0  0  0  0  0  0  0  0  0  0  0  0
    8.8220   -4.0241    0.0000 F   0  0  0  0  0  0  0  0  0  0  0  0
    9.9769   -3.3649    0.0000 F   0  0  0  0  0  0  0  0  0  0  0  0
  3  4  2  0  0  0  0
 10 15  2  0  0  0  0
 10 11  1  0  0  0  0
 11 12  2  0  0  0  0
 12 13  1  0  0  0  0
 13 14  2  0  0  0  0
 14 15  1  0  0  0  0
  8 16  1  0  0  0  0
  7  8  2  0  0  0  0
 16 17  2  0  0  0  0
  8  9  1  0  0  0  0
 16 18  1  0  0  0  0
 18  1  1  0  0  0  0
  9 10  1  0  0  0  0
  6 19  1  0  0  0  0
 15  7  1  0  0  0  0
  5 20  1  0  0  0  0
  4  5  1  0  0  0  0
 20 21  1  0  0  0  0
  2  3  1  0  0  0  0
 21 22  1  0  0  0  0
  5  6  2  0  0  0  0
  6  1  1  0  0  0  0
  1  2  2  0  0  0  0
 22 23  1  0  0  0  0
 22 24  1  0  0  0  0
 22 25  1  0  0  0  0
M  END
> <#>
244

> <PLATE>
LAT004

> <ROW>
D

> <COL>
2

> <COORD>
D02

> <LATID>
LAT004D02

> <Supplier>
Sigma

> <Suplier_CAT#>
L 8533

> <Name>
Lansoprazole

> <Concentration_(mM)>
2.5

> <IC50_(µM)>
24

> <Yeast_Active?>
-

> <Pubchem_CID>
3883

> <Description>
Gastric proton pump inhibitor

$$$$
