
  -ISIS-  08130814242D

 21 20  0  0  0  0  0  0  0  0999 V2000
    2.0465    0.7083    0.0000 Na  0  3  0  0  0  0  0  0  0  0  0  0
   -4.9084    0.2622    0.0000 O   0  0  0  0  0  0  0  0  0  0  0  0
   -4.1357    0.7083    0.0000 C   0  0  0  0  0  0  0  0  0  0  0  0
   -4.1357    1.6007    0.0000 C   0  0  0  0  0  0  0  0  0  0  0  0
   -3.3629    2.0468    0.0000 C   0  0  0  0  0  0  0  0  0  0  0  0
   -2.5901    1.6007    0.0000 C   0  0  0  0  0  0  0  0  0  0  0  0
   -2.5901    0.7083    0.0000 C   0  0  0  0  0  0  0  0  0  0  0  0
   -3.3629    0.2622    0.0000 C   0  0  0  0  0  0  0  0  0  0  0  0
   -1.8174    2.0468    0.0000 N   0  0  0  0  0  0  0  0  0  0  0  0
   -1.0446    1.6007    0.0000 C   0  0  0  0  0  0  0  0  0  0  0  0
   -0.2718    2.0468    0.0000 C   0  0  0  0  0  0  0  0  0  0  0  0
    0.5010    1.6007    0.0000 C   0  0  0  0  0  0  0  0  0  0  0  0
    0.5010    0.7083    0.0000 C   0  0  0  0  0  0  0  0  0  0  0  0
    1.2737    0.2622    0.0000 O   0  5  0  0  0  0  0  0  0  0  0  0
   -0.2718    0.2622    0.0000 C   0  0  0  0  0  0  0  0  0  0  0  0
   -1.0446    0.7083    0.0000 C   0  0  0  0  0  0  0  0  0  0  0  0
   -3.3629   -0.6301    0.0000 Cl  0  0  0  0  0  0  0  0  0  0  0  0
   -4.9084    2.0468    0.0000 Cl  0  0  0  0  0  0  0  0  0  0  0  0
    2.8193    0.2622    0.0000 H   0  0  0  0  0  0  0  0  0  0  0  0
    3.5920    0.7083    0.0000 O   0  0  0  0  0  0  0  0  0  0  0  0
    3.5920    1.6007    0.0000 H   0  0  0  0  0  0  0  0  0  0  0  0
  2  3  2  0  0  0  0
  3  4  1  0  0  0  0
  4  5  2  0  0  0  0
  5  6  1  0  0  0  0
  6  7  1  0  0  0  0
  7  8  2  0  0  0  0
  3  8  1  0  0  0  0
  6  9  2  0  0  0  0
  9 10  1  0  0  0  0
 10 11  2  0  0  0  0
 11 12  1  0  0  0  0
 12 13  2  0  0  0  0
 13 14  1  0  0  0  0
 13 15  1  0  0  0  0
 15 16  2  0  0  0  0
 10 16  1  0  0  0  0
  8 17  1  0  0  0  0
  4 18  1  0  0  0  0
 19 20  1  0  0  0  0
 20 21  1  0  0  0  0
M  CHG  2   1   1  14  -1
M  END
> <#>
469

> <PLATE>
LAT006

> <ROW>
E

> <COL>
10

> <COORD>
E10

> <LATID>
LAT006E10

> <Supplier>
Sigma

> <Suplier_CAT#>
D1878

> <Name>
2,6-Dichloroindophenol Sodium Salt Hydrate

> <Concentration_(mM)>
2.5

> <IC50_(µM)>
100

> <Yeast_Active?>
-

> <Pubchem_CID>
13726

$$$$
