
  -ISIS-  08130814242D

 26 29  0  0  0  0  0  0  0  0999 V2000
    8.7216   -4.5705    0.0000 C   0  0  0  0  0  0  0  0  0  0  0  0
    9.4320   -4.9831    0.0000 C   0  0  0  0  0  0  0  0  0  0  0  0
   10.1423   -4.5743    0.0000 C   0  0  0  0  0  0  0  0  0  0  0  0
   10.1436   -3.7530    0.0000 C   0  0  0  0  0  0  0  0  0  0  0  0
    9.4285   -3.3423    0.0000 C   0  0  0  0  0  0  0  0  0  0  0  0
    8.7210   -3.7535    0.0000 C   0  0  0  0  0  0  0  0  0  0  0  0
    5.8777   -3.7458    0.0000 C   0  0  0  0  0  0  0  0  0  0  0  0
    5.8724   -4.5690    0.0000 C   0  0  0  0  0  0  0  0  0  0  0  0
    6.5815   -4.9834    0.0000 C   0  0  0  0  0  0  0  0  0  0  0  0
    7.2965   -4.5757    0.0000 C   0  0  0  0  0  0  0  0  0  0  0  0
    7.2978   -3.7493    0.0000 C   0  0  0  0  0  0  0  0  0  0  0  0
    6.5880   -3.3387    0.0000 C   0  0  0  0  0  0  0  0  0  0  0  0
    3.7417   -2.5000    0.0000 C   0  0  0  0  0  0  0  0  0  0  0  0
    3.7375   -3.3250    0.0000 C   0  0  0  0  0  0  0  0  0  0  0  0
    4.4460   -3.7388    0.0000 C   0  0  0  0  0  0  0  0  0  0  0  0
    5.1631   -3.3322    0.0000 C   0  0  0  0  0  0  0  0  0  0  0  0
    5.1673   -2.5072    0.0000 C   0  0  0  0  0  0  0  0  0  0  0  0
    4.4543   -2.0888    0.0000 N   0  0  0  0  0  0  0  0  0  0  0  0
    2.3152   -2.5041    0.0000 C   0  0  0  0  0  0  0  0  0  0  0  0
    2.3141   -3.3315    0.0000 C   0  0  0  0  0  0  0  0  0  0  0  0
    3.0289   -3.7444    0.0000 C   0  0  0  0  0  0  0  0  0  0  0  0
    3.0271   -2.0914    0.0000 C   0  0  0  0  0  0  0  0  0  0  0  0
    1.5958   -2.0875    0.0000 Cl  0  0  0  0  0  0  0  0  0  0  0  0
    4.4417   -4.5625    0.0000 O   0  0  0  0  0  0  0  0  0  0  0  0
    5.8792   -2.0875    0.0000 O   0  0  0  0  0  0  0  0  0  0  0  0
    8.0083   -4.9875    0.0000 O   0  0  0  0  0  0  0  0  0  0  0  0
  6  1  1  0  0  0  0
  1  2  2  0  0  0  0
  3  4  2  0  0  0  0
  7  8  2  0  0  0  0
  8  9  1  0  0  0  0
 13 18  1  0  0  0  0
 14 15  1  0  0  0  0
 15 16  2  0  0  0  0
 16 17  1  0  0  0  0
 17 18  1  0  0  0  0
  4  5  1  0  0  0  0
  9 10  2  0  0  0  0
 19 20  2  0  0  0  0
  2  3  1  0  0  0  0
 20 21  1  0  0  0  0
 21 14  2  0  0  0  0
 10 11  1  0  0  0  0
 13 22  2  0  0  0  0
 22 19  1  0  0  0  0
  5  6  2  0  0  0  0
 19 23  1  0  0  0  0
 11 12  2  0  0  0  0
 15 24  1  0  0  0  0
 12  7  1  0  0  0  0
 17 25  2  0  0  0  0
 16  7  1  0  0  0  0
 13 14  1  0  0  0  0
 10 26  1  0  0  0  0
 26  1  1  0  0  0  0
M  END
> <#>
240

> <PLATE>
LAT003

> <ROW>
H

> <COL>
11

> <COORD>
H11

> <LATID>
LAT003H11

> <Supplier>
Sigma

> <Suplier_CAT#>
L 0258

> <Name>
L-701,324

> <Concentration_(mM)>
2.5

> <IC50_(µM)>
inactive

> <Yeast_Active?>
-

> <Pubchem_CID>
982136

> <Description>
Selective antagonist at the glycine site of the NMDA glutamate receptor

$$$$
