
  -ISIS-  08130814242D

 19 20  0  0  0  0  0  0  0  0999 V2000
    1.7917   -0.0917    0.0000 S   0  0  3  0  0  0  0  0  0  0  0  0
    2.5417   -0.0917    0.0000 N   0  0  0  0  0  0  0  0  0  0  0  0
    2.9167   -0.7417    0.0000 C   0  0  0  0  0  0  0  0  0  0  0  0
    1.0417   -0.0917    0.0000 C   0  0  0  0  0  0  0  0  0  0  0  0
    1.7917    0.6500    0.0000 O   0  0  0  0  0  0  0  0  0  0  0  0
    1.7917   -0.8500    0.0000 O   0  0  0  0  0  0  0  0  0  0  0  0
    3.6667   -0.7417    0.0000 O   0  0  0  0  0  0  0  0  0  0  0  0
    2.5417   -1.3917    0.0000 C   0  0  0  0  0  0  0  0  0  0  0  0
    0.6667   -0.7500    0.0000 C   0  0  0  0  0  0  0  0  0  0  0  0
    0.6667    0.5458    0.0000 C   0  0  0  0  0  0  0  0  0  0  0  0
   -0.4583   -0.0917    0.0000 C   0  0  0  0  0  0  0  0  0  0  0  0
   -1.2083   -0.0917    0.0000 N   0  0  0  0  0  0  0  0  0  0  0  0
   -0.0833   -0.7500    0.0000 C   0  0  0  0  0  0  0  0  0  0  0  0
   -0.0833    0.5458    0.0000 C   0  0  0  0  0  0  0  0  0  0  0  0
    1.7917   -1.3917    0.0000 C   0  0  0  0  0  0  0  0  0  0  0  0
    2.9167   -2.0417    0.0000 C   0  0  0  0  0  0  0  0  0  0  0  0
    2.5417   -2.6917    0.0000 C   0  0  0  0  0  0  0  0  0  0  0  0
    1.4167   -2.0417    0.0000 C   0  0  0  0  0  0  0  0  0  0  0  0
    1.7917   -2.6917    0.0000 C   0  0  0  0  0  0  0  0  0  0  0  0
  2  1  1  0  0  0  0
  3  2  1  0  0  0  0
  4  1  1  0  0  0  0
  5  1  2  0  0  0  0
  6  1  2  0  0  0  0
  7  3  2  0  0  0  0
  8  3  1  0  0  0  0
  9  4  2  0  0  0  0
 10  4  1  0  0  0  0
 11 14  1  0  0  0  0
 12 11  1  0  0  0  0
 13  9  1  0  0  0  0
 14 10  2  0  0  0  0
 15  8  1  0  0  0  0
 16  8  2  0  0  0  0
 17 16  1  0  0  0  0
 18 15  2  0  0  0  0
 19 17  2  0  0  0  0
 11 13  2  0  0  0  0
 18 19  1  0  0  0  0
M  END
> <#>
99

> <PLATE>
LAT002

> <ROW>
C

> <COL>
4

> <COORD>
C04

> <LATID>
LAT002C04

> <Supplier>
Microsource

> <Suplier_CAT#>
01500544

> <Name>
Sulfabenzamide

> <Concentration_(mM)>
2.5

> <IC50_(µM)>
2.8

> <Yeast_Active?>
-

> <Pubchem_CID>
5319

> <Description>
Antibacterial

$$$$
