
  -ISIS-  08130814242D

 17 18  0  0  0  0  0  0  0  0999 V2000
   -3.2125    0.6708    0.0000 C   0  0  0  0  0  0  0  0  0  0  0  0
   -4.0000    1.1625    0.0000 C   0  0  0  0  0  0  0  0  0  0  0  0
   -1.5958    0.6625    0.0000 N   0  0  0  0  0  0  0  0  0  0  0  0
   -4.8125    0.7000    0.0000 O   0  0  0  0  0  0  0  0  0  0  0  0
    0.0792    0.6458    0.0000 C   0  0  0  0  0  0  0  0  0  0  0  0
   -2.3958    1.1333    0.0000 N   0  0  0  0  0  0  0  0  0  0  0  0
   -3.2125   -0.2542    0.0000 O   0  0  0  0  0  0  0  0  0  0  0  0
   -4.0000    2.0708    0.0000 C   0  0  0  0  0  0  0  0  0  0  0  0
   -5.6208    1.1833    0.0000 C   0  0  0  0  0  0  0  0  0  0  0  0
    0.0875   -0.3875    0.0000 C   0  0  0  0  0  0  0  0  0  0  0  0
   -5.6208    2.1208    0.0000 C   0  0  0  0  0  0  0  0  0  0  0  0
   -0.7833    1.1208    0.0000 C   0  0  0  0  0  0  0  0  0  0  0  0
   -0.7625   -0.9167    0.0000 I   0  0  0  0  0  0  0  0  0  0  0  0
    0.9375    1.1208    0.0000 C   0  0  0  0  0  0  0  0  0  0  0  0
    0.9500   -0.8875    0.0000 C   0  0  0  0  0  0  0  0  0  0  0  0
    1.8375    0.6500    0.0000 C   0  0  0  0  0  0  0  0  0  0  0  0
    1.8375   -0.3667    0.0000 C   0  0  0  0  0  0  0  0  0  0  0  0
  2  1  1  0  0  0  0
  3  6  1  0  0  0  0
  4  2  1  0  0  0  0
  5 12  1  0  0  0  0
  6  1  1  0  0  0  0
  7  1  2  0  0  0  0
  8  2  2  0  0  0  0
  9  4  1  0  0  0  0
 10  5  1  0  0  0  0
 11  8  1  0  0  0  0
 12  3  2  0  0  0  0
 13 10  1  0  0  0  0
 14  5  2  0  0  0  0
 15 10  2  0  0  0  0
 16 14  1  0  0  0  0
 17 16  2  0  0  0  0
  9 11  2  0  0  0  0
 17 15  1  0  0  0  0
M  END
> <#>
640

> <PLATE>
LAT008

> <ROW>
H

> <COL>
11

> <COORD>
H11

> <LATID>
LAT008H11

> <Supplier>
Chembridge

> <Suplier_CAT#>
5489990

> <Name>
Novel

> <Sec_Name>
148_A11

> <Concentration_(mM)>
2.5

> <IC50_(µM)>
70

> <Yeast_Active?>
-

> <Pubchem_CID>
870620

$$$$
