
  -ISIS-  08130814242D

  6  4  0  0  0  0  0  0  0  0999 V2000
    5.4937   -2.5132    0.0000 Cu  0  2  0  0  0  0  0  0  0  0  0  0
    6.8322   -3.2859    0.0000 S   0  0  3  0  0  0  0  0  0  0  0  0
    6.8322   -4.1783    0.0000 O   0  0  0  0  0  0  0  0  0  0  0  0
    6.8322   -2.3936    0.0000 O   0  0  0  0  0  0  0  0  0  0  0  0
    5.9399   -3.2859    0.0000 O   0  5  0  0  0  0  0  0  0  0  0  0
    7.7245   -3.2859    0.0000 O   0  5  0  0  0  0  0  0  0  0  0  0
  2  3  2  0  0  0  0
  2  4  2  0  0  0  0
  2  5  1  0  0  0  0
  2  6  1  0  0  0  0
M  CHG  3   1   2   5  -1   6  -1
M  END
> <#>
522

> <PLATE>
LAT007

> <ROW>
B

> <COL>
7

> <COORD>
B07

> <LATID>
LAT007B07

> <Supplier>
BDH

> <Suplier_CAT#>
Copper_Sulfate

> <Name>
Copper Sulfate

> <Concentration_(mM)>
2.5

> <IC50_(µM)>
43

> <Yeast_Active?>
-

> <Pubchem_CID>
24462

$$$$
