
  -ISIS-  08130814242D

 33 35  0  0  0  0  0  0  0  0999 V2000
    9.6042   -7.0875    0.0000 Cl  0  0  0  0  0  0  0  0  0  0  0  0
    6.8792   -4.9417    0.0000 C   0  0  2  0  0  0  0  0  0  0  0  0
    5.4500   -4.9417    0.0000 C   0  0  0  0  0  0  0  0  0  0  0  0
    6.8792   -5.7667    0.0000 C   0  0  2  0  0  0  0  0  0  0  0  0
    8.3042   -4.9417    0.0000 C   0  0  0  0  0  0  0  0  0  0  0  0
    6.1667   -4.5292    0.0000 C   0  0  0  0  0  0  0  0  0  0  0  0
    7.5917   -4.5292    0.0000 C   0  0  0  0  0  0  0  0  0  0  0  0
    8.3042   -5.7667    0.0000 C   0  0  0  0  0  0  0  0  0  0  0  0
    5.4500   -5.7667    0.0000 C   0  0  1  0  0  0  0  0  0  0  0  0
    4.7375   -4.5292    0.0000 C   0  0  0  0  0  0  0  0  0  0  0  0
    4.7375   -6.1792    0.0000 C   0  0  0  0  0  0  0  0  0  0  0  0
    7.5917   -6.1792    0.0000 C   0  0  1  0  0  0  0  0  0  0  0  0
    4.0167   -4.9417    0.0000 C   0  0  0  0  0  0  0  0  0  0  0  0
    6.1667   -6.1792    0.0000 C   0  0  2  0  0  0  0  0  0  0  0  0
    4.0167   -5.7667    0.0000 C   0  0  0  0  0  0  0  0  0  0  0  0
    9.0292   -4.5292    0.0000 C   0  0  0  0  0  0  0  0  0  0  0  0
    7.5917   -7.0042    0.0000 N   0  0  3  0  0  0  0  0  0  0  0  0
    7.5917   -3.7042    0.0000 O   0  0  0  0  0  0  0  0  0  0  0  0
    4.7375   -3.7042    0.0000 O   0  0  0  0  0  0  0  0  0  0  0  0
    3.3042   -4.5292    0.0000 C   0  0  0  0  0  0  0  0  0  0  0  0
    4.7375   -7.0042    0.0000 C   0  0  0  0  0  0  0  0  0  0  0  0
    6.8792   -4.1167    0.0000 O   0  0  0  0  0  0  0  0  0  0  0  0
    9.0292   -3.7042    0.0000 O   0  0  0  0  0  0  0  0  0  0  0  0
    6.1667   -3.7042    0.0000 O   0  0  0  0  0  0  0  0  0  0  0  0
    9.0292   -6.1917    0.0000 O   0  0  0  0  0  0  0  0  0  0  0  0
    6.1667   -7.0042    0.0000 O   0  0  0  0  0  0  0  0  0  0  0  0
    9.7417   -4.9500    0.0000 N   0  0  0  0  0  0  0  0  0  0  0  0
    3.3042   -6.1792    0.0000 C   0  0  0  0  0  0  0  0  0  0  0  0
    3.3042   -3.7042    0.0000 O   0  0  0  0  0  0  0  0  0  0  0  0
    2.5917   -5.7667    0.0000 C   0  0  0  0  0  0  0  0  0  0  0  0
    2.5917   -4.9417    0.0000 C   0  0  0  0  0  0  0  0  0  0  0  0
    8.3042   -7.4167    0.0000 C   0  0  0  0  0  0  0  0  0  0  0  0
    6.8792   -7.4167    0.0000 C   0  0  0  0  0  0  0  0  0  0  0  0
  3  6  2  0  0  0  0
  4  2  1  0  0  0  0
  5  7  1  0  0  0  0
  6  2  1  0  0  0  0
  7  2  1  0  0  0  0
  8  5  2  0  0  0  0
  9  3  1  0  0  0  0
 10  3  1  0  0  0  0
 11  9  1  0  0  0  0
 12  4  1  0  0  0  0
 13 10  1  0  0  0  0
  4 14  1  6  0  0  0
 15 13  1  0  0  0  0
 16  5  1  0  0  0  0
 12 17  1  1  0  0  0
 18  7  2  0  0  0  0
 19 10  2  0  0  0  0
 20 13  2  0  0  0  0
 21 11  2  0  0  0  0
  2 22  1  1  0  0  0
 23 16  2  0  0  0  0
 24  6  1  0  0  0  0
 25  8  1  0  0  0  0
 14 26  1  1  0  0  0
 27 16  1  0  0  0  0
 28 15  2  0  0  0  0
 29 20  1  0  0  0  0
 30 31  2  0  0  0  0
 31 20  1  0  0  0  0
 32 17  1  0  0  0  0
 33 17  1  0  0  0  0
  9 14  1  6  0  0  0
  8 12  1  0  0  0  0
 11 15  1  0  0  0  0
 30 28  1  0  0  0  0
M  END
> <#>
133

> <PLATE>
LAT002

> <ROW>
E

> <COL>
8

> <COORD>
E08

> <LATID>
LAT002E08

> <Supplier>
Microsource

> <Suplier_CAT#>
01501104

> <Name>
Methacycline Hydrochloride

> <Concentration_(mM)>
2.5

> <IC50_(µM)>
8.4

> <Yeast_Active?>
-

> <Pubchem_CID>
5281092

> <Description>
Antibacterial

$$$$
