
  -ISIS-  08130814242D

 10 10  0  0  0  0  0  0  0  0999 V2000
    8.9125   -3.2479    0.0000 C   0  0  0  0  0  0  0  0  0  0  0  0
    7.6625   -3.2479    0.0000 C   0  0  0  0  0  0  0  0  0  0  0  0
    7.0375   -4.3304    0.0000 C   0  0  0  0  0  0  0  0  0  0  0  0
    5.7875   -4.3304    0.0000 C   0  0  0  0  0  0  0  0  0  0  0  0
    5.1625   -3.2479    0.0000 C   0  0  0  0  0  0  0  0  0  0  0  0
    5.7875   -2.1654    0.0000 C   0  0  0  0  0  0  0  0  0  0  0  0
    7.0375   -2.1654    0.0000 C   0  0  0  0  0  0  0  0  0  0  0  0
    9.5375   -4.3304    0.0000 O   0  0  0  0  0  0  0  0  0  0  0  0
    9.5375   -2.1654    0.0000 O   0  0  0  0  0  0  0  0  0  0  0  0
    3.9125   -3.2479    0.0000 O   0  0  0  0  0  0  0  0  0  0  0  0
  1  2  1  0  0  0  0
  2  3  1  0  0  0  0
  3  4  2  0  0  0  0
  4  5  1  0  0  0  0
  5  6  2  0  0  0  0
  6  7  1  0  0  0  0
  2  7  2  0  0  0  0
  1  8  2  0  0  0  0
  1  9  1  0  0  0  0
  5 10  1  0  0  0  0
M  END
> <#>
369

> <PLATE>
LAT005

> <ROW>
A

> <COL>
8

> <COORD>
A08

> <LATID>
LAT005A08

> <Supplier>
Fluka

> <Suplier_CAT#>
54630

> <Name>
4-Hydroxybenzoic Acid

> <Concentration_(mM)>
2.5

> <IC50_(µM)>
inactive

> <Yeast_Active?>
-

> <Pubchem_CID>
135

$$$$
