
  -ISIS-  08130814242D

 27 30  0  0  0  0  0  0  0  0999 V2000
   -2.0125    0.7458    0.0000 N   0  0  3  0  0  0  0  0  0  0  0  0
   -2.7500    1.1625    0.0000 C   0  0  0  0  0  0  0  0  0  0  0  0
   -2.0125   -0.0917    0.0000 C   0  0  0  0  0  0  0  0  0  0  0  0
   -2.7500   -0.5167    0.0000 N   0  0  0  0  0  0  0  0  0  0  0  0
   -3.4708    0.7458    0.0000 C   0  0  0  0  0  0  0  0  0  0  0  0
   -3.4708   -0.0917    0.0000 C   0  0  0  0  0  0  0  0  0  0  0  0
   -1.2708   -0.5167    0.0000 C   0  0  0  0  0  0  0  0  0  0  0  0
   -1.2958    1.1625    0.0000 C   0  0  0  0  0  0  0  0  0  0  0  0
   -2.7500    2.0000    0.0000 O   0  0  0  0  0  0  0  0  0  0  0  0
   -0.5500   -0.0917    0.0000 C   0  0  0  0  0  0  0  0  0  0  0  0
   -1.2958    2.0000    0.0000 C   0  0  0  0  0  0  0  0  0  0  0  0
   -0.5708    0.7458    0.0000 C   0  0  0  0  0  0  0  0  0  0  0  0
    0.1875   -0.5167    0.0000 C   0  0  0  0  0  0  0  0  0  0  0  0
   -4.1958    1.1625    0.0000 C   0  0  0  0  0  0  0  0  0  0  0  0
    0.1500    2.0000    0.0000 C   0  0  0  0  0  0  0  0  0  0  0  0
    0.1500    1.1625    0.0000 C   0  0  0  0  0  0  0  0  0  0  0  0
   -0.5708    2.4208    0.0000 C   0  0  0  0  0  0  0  0  0  0  0  0
   -4.1958   -0.5167    0.0000 C   0  0  0  0  0  0  0  0  0  0  0  0
    0.8875    2.4458    0.0000 O   0  0  0  0  0  0  0  0  0  0  0  0
    0.1875   -1.3542    0.0000 C   0  0  0  0  0  0  0  0  0  0  0  0
    0.9042   -0.0917    0.0000 C   0  0  0  0  0  0  0  0  0  0  0  0
    1.6042    2.0208    0.0000 C   0  0  0  0  0  0  0  0  0  0  0  0
   -4.9125    0.7458    0.0000 C   0  0  0  0  0  0  0  0  0  0  0  0
   -4.9125   -0.0917    0.0000 C   0  0  0  0  0  0  0  0  0  0  0  0
    1.6500   -0.5167    0.0000 C   0  0  0  0  0  0  0  0  0  0  0  0
    0.9292   -1.7792    0.0000 C   0  0  0  0  0  0  0  0  0  0  0  0
    1.6500   -1.3542    0.0000 C   0  0  0  0  0  0  0  0  0  0  0  0
  2  1  1  0  0  0  0
  3  1  1  0  0  0  0
  4  3  2  0  0  0  0
  5  2  1  0  0  0  0
  6  4  1  0  0  0  0
  7  3  1  0  0  0  0
  8  1  1  0  0  0  0
  9  2  2  0  0  0  0
 10  7  2  0  0  0  0
 11  8  2  0  0  0  0
 12  8  1  0  0  0  0
 13 10  1  0  0  0  0
 14  5  1  0  0  0  0
 15 16  1  0  0  0  0
 16 12  2  0  0  0  0
 17 11  1  0  0  0  0
 18  6  1  0  0  0  0
 19 15  1  0  0  0  0
 20 13  2  0  0  0  0
 21 13  1  0  0  0  0
 22 19  1  0  0  0  0
 23 14  2  0  0  0  0
 24 18  2  0  0  0  0
 25 21  2  0  0  0  0
 26 20  1  0  0  0  0
 27 25  1  0  0  0  0
 15 17  2  0  0  0  0
  5  6  2  0  0  0  0
 23 24  1  0  0  0  0
 26 27  2  0  0  0  0
M  END
> <#>
884

> <PLATE>
LAT012

> <ROW>
D

> <COL>
2

> <COORD>
D02

> <LATID>
LAT012D02

> <Supplier>
Chembridge

> <Suplier_CAT#>
5705501

> <Name>
Novel

> <Sec_Name>
225_C03

> <Concentration_(mM)>
2.5

> <IC50_(µM)>
>100

> <Yeast_Active?>
-

> <Pubchem_CID>
5336410

$$$$
