
  -ISIS-  08130814242D

 20 22  0  0  0  0  0  0  0  0999 V2000
    0.6500    1.8208    0.0000 C   0  0  0  0  0  0  0  0  0  0  0  0
    0.3875    1.4458    0.0000 S   0  0  0  0  0  0  0  0  0  0  0  0
    0.3875    2.1833    0.0000 C   0  0  0  0  0  0  0  0  0  0  0  0
   -0.0500    2.0458    0.0000 C   0  0  0  0  0  0  0  0  0  0  0  0
   -0.0500    1.5833    0.0000 C   0  0  0  0  0  0  0  0  0  0  0  0
    1.1042    1.8208    0.0000 C   0  0  0  0  0  0  0  0  0  0  0  0
    1.3500    1.4208    0.0000 N   0  0  0  0  0  0  0  0  0  0  0  0
    0.5500    2.6208    0.0000 O   0  0  0  0  0  0  0  0  0  0  0  0
    1.8042    1.4208    0.0000 C   0  0  0  0  0  0  0  0  0  0  0  0
    2.0292    1.8208    0.0000 C   0  0  0  0  0  0  0  0  0  0  0  0
   -0.4333    2.2833    0.0000 C   0  0  0  0  0  0  0  0  0  0  0  0
    1.7875    2.2208    0.0000 O   0  0  0  0  0  0  0  0  0  0  0  0
   -0.4333    1.3625    0.0000 C   0  0  0  0  0  0  0  0  0  0  0  0
    2.0292    1.0208    0.0000 C   0  0  0  0  0  0  0  0  0  0  0  0
    2.4875    1.8208    0.0000 C   0  0  0  0  0  0  0  0  0  0  0  0
    2.0292    2.6208    0.0000 C   0  0  0  0  0  0  0  0  0  0  0  0
   -0.8333    2.0625    0.0000 C   0  0  0  0  0  0  0  0  0  0  0  0
   -0.8333    1.5833    0.0000 C   0  0  0  0  0  0  0  0  0  0  0  0
    2.4667    1.0208    0.0000 C   0  0  0  0  0  0  0  0  0  0  0  0
    2.7292    1.4208    0.0000 C   0  0  0  0  0  0  0  0  0  0  0  0
  2  1  1  0  0  0  0
  3  1  1  0  0  0  0
  4  3  1  0  0  0  0
  5  2  1  0  0  0  0
  6  1  2  0  0  0  0
  7  6  1  0  0  0  0
  8  3  2  0  0  0  0
  9  7  1  0  0  0  0
 10  9  2  0  0  0  0
 11  4  1  0  0  0  0
 12 10  1  0  0  0  0
 13  5  1  0  0  0  0
 14  9  1  0  0  0  0
 15 10  1  0  0  0  0
 16 12  1  0  0  0  0
 17 11  2  0  0  0  0
 18 13  2  0  0  0  0
 19 14  2  0  0  0  0
 20 19  1  0  0  0  0
  4  5  2  0  0  0  0
 18 17  1  0  0  0  0
 20 15  2  0  0  0  0
M  END
> <#>
815

> <PLATE>
LAT011

> <ROW>
G

> <COL>
3

> <COORD>
G03

> <LATID>
LAT011G03

> <Supplier>
Chembridge

> <Suplier_CAT#>
5660700

> <Name>
Novel

> <Sec_Name>
205_A11

> <Concentration_(mM)>
2.5

> <IC50_(µM)>
>100

> <Yeast_Active?>
-

> <Pubchem_CID>
NULL

$$$$
