
  -ISIS-  08130814242D

 21 23  0  0  0  0  0  0  0  0999 V2000
   -1.5708   -0.2042    0.0000 C   0  0  0  0  0  0  0  0  0  0  0  0
   -2.5000   -1.7792    0.0000 N   0  0  0  0  0  0  0  0  0  0  0  0
   -1.5708   -1.2542    0.0000 C   0  0  0  0  0  0  0  0  0  0  0  0
   -3.4208   -0.2042    0.0000 C   0  0  0  0  0  0  0  0  0  0  0  0
   -0.6125    0.3500    0.0000 N   0  0  0  0  0  0  0  0  0  0  0  0
   -3.4208   -1.2542    0.0000 C   0  0  0  0  0  0  0  0  0  0  0  0
    1.3167    0.3500    0.0000 C   0  0  0  0  0  0  0  0  0  0  0  0
    0.3542   -0.2042    0.0000 N   0  0  0  0  0  0  0  0  0  0  0  0
    2.2667   -0.2042    0.0000 N   0  0  0  0  0  0  0  0  0  0  0  0
    1.3167    1.4625    0.0000 O   0  0  0  0  0  0  0  0  0  0  0  0
   -0.5958   -1.8042    0.0000 O   0  0  0  0  0  0  0  0  0  0  0  0
    3.2375    0.3500    0.0000 C   0  0  0  0  0  0  0  0  0  0  0  0
   -4.3458    0.3208    0.0000 C   0  0  0  0  0  0  0  0  0  0  0  0
   -4.3458   -1.7792    0.0000 C   0  0  0  0  0  0  0  0  0  0  0  0
    3.2500    1.4958    0.0000 C   0  0  0  0  0  0  0  0  0  0  0  0
    4.2042   -0.2375    0.0000 C   0  0  0  0  0  0  0  0  0  0  0  0
   -5.2708   -0.2042    0.0000 C   0  0  0  0  0  0  0  0  0  0  0  0
   -5.2708   -1.2542    0.0000 C   0  0  0  0  0  0  0  0  0  0  0  0
    5.2167    0.3208    0.0000 C   0  0  0  0  0  0  0  0  0  0  0  0
    4.2542    2.0500    0.0000 C   0  0  0  0  0  0  0  0  0  0  0  0
    5.2375    1.4625    0.0000 C   0  0  0  0  0  0  0  0  0  0  0  0
  2  3  2  0  0  0  0
  3  1  1  0  0  0  0
  4  1  1  0  0  0  0
  5  1  2  0  0  0  0
  6  4  1  0  0  0  0
  7  8  1  0  0  0  0
  8  5  1  0  0  0  0
  9  7  1  0  0  0  0
 10  7  2  0  0  0  0
 11  3  1  0  0  0  0
 12  9  1  0  0  0  0
 13  4  2  0  0  0  0
 14  6  2  0  0  0  0
 15 12  2  0  0  0  0
 16 12  1  0  0  0  0
 17 13  1  0  0  0  0
 18 17  2  0  0  0  0
 19 16  2  0  0  0  0
 20 15  1  0  0  0  0
 21 19  1  0  0  0  0
  2  6  1  0  0  0  0
 18 14  1  0  0  0  0
 21 20  2  0  0  0  0
M  END
> <#>
611

> <PLATE>
LAT008

> <ROW>
C

> <COL>
8

> <COORD>
C08

> <LATID>
LAT008C08

> <Supplier>
Chembridge

> <Suplier_CAT#>
5533035

> <Name>
Novel

> <Sec_Name>
155_D10

> <Concentration_(mM)>
2.5

> <IC50_(µM)>
10

> <Yeast_Active?>
-

> <Pubchem_CID>
NULL

> <Comment>
SS07

$$$$
