
  -ISIS-  08130814242D

 12 12  0  0  0  0  0  0  0  0999 V2000
   -0.8833   -0.1909    0.0000 C   0  0  0  0  0  0  0  0  0  0  0  0
   -0.2583    0.8917    0.0000 C   0  0  0  0  0  0  0  0  0  0  0  0
    0.9917    0.8917    0.0000 C   0  0  0  0  0  0  0  0  0  0  0  0
   -0.2583   -1.2734    0.0000 O   0  0  0  0  0  0  0  0  0  0  0  0
   -2.1333   -0.1909    0.0000 C   0  0  0  0  0  0  0  0  0  0  0  0
   -2.7583   -1.2734    0.0000 C   0  0  0  0  0  0  0  0  0  0  0  0
   -4.0083   -1.2734    0.0000 C   0  0  0  0  0  0  0  0  0  0  0  0
   -4.6333   -0.1909    0.0000 C   0  0  0  0  0  0  0  0  0  0  0  0
   -4.0083    0.8917    0.0000 C   0  0  0  0  0  0  0  0  0  0  0  0
   -2.7583    0.8917    0.0000 C   0  0  0  0  0  0  0  0  0  0  0  0
   -0.8833    1.9742    0.0000 N   0  0  0  0  0  0  0  0  0  0  0  0
   -0.2583    3.0567    0.0000 O   0  0  0  0  0  0  0  0  0  0  0  0
  1  2  1  0  0  0  0
  2  3  1  0  0  0  0
  5  6  1  0  0  0  0
  6  7  2  0  0  0  0
  7  8  1  0  0  0  0
  8  9  2  0  0  0  0
  9 10  1  0  0  0  0
  5 10  2  0  0  0  0
  1  4  2  0  0  0  0
  1  5  1  0  0  0  0
 11 12  1  0  0  0  0
  2 11  2  0  0  0  0
M  END
> <#>
396

> <PLATE>
LAT005

> <ROW>
D

> <COL>
11

> <COORD>
D11

> <LATID>
LAT005D11

> <Supplier>
Sigma

> <Suplier_CAT#>
I-3502

> <Name>
Alpha-Isonitrosopropiophenone

> <Concentration_(mM)>
2.5

> <IC50_(µM)>
>100

> <Yeast_Active?>
-

> <Pubchem_CID>
6398977

$$$$
