
  -ISIS-  08130814242D

 23 24  0  0  0  0  0  0  0  0999 V2000
   -5.1208    1.9125    0.0000 C   0  0  0  0  0  0  0  0  0  0  0  0
   -1.8833   -0.4667    0.0000 C   0  0  0  0  0  0  0  0  0  0  0  0
   -4.6625    1.1333    0.0000 N   0  0  0  0  0  0  0  0  0  0  0  0
   -0.9625   -0.4667    0.0000 N   0  0  0  0  0  0  0  0  0  0  0  0
   -2.3625    0.3500    0.0000 C   0  0  0  0  0  0  0  0  0  0  0  0
   -6.0292    1.8958    0.0000 C   0  0  3  0  0  0  0  0  0  0  0  0
   -3.7458    1.1500    0.0000 C   0  0  0  0  0  0  0  0  0  0  0  0
   -3.2833    0.3500    0.0000 C   0  0  0  0  0  0  0  0  0  0  0  0
   -4.6833    2.7125    0.0000 O   0  0  0  0  0  0  0  0  0  0  0  0
   -2.3458   -1.2500    0.0000 O   0  0  0  0  0  0  0  0  0  0  0  0
   -0.5000    0.3333    0.0000 C   0  0  0  0  0  0  0  0  0  0  0  0
    0.4375    1.9333    0.0000 C   0  0  0  0  0  0  0  0  0  0  0  0
    0.9000    2.7500    0.0000 Cl  0  0  0  0  0  0  0  0  0  0  0  0
    0.4375    0.3333    0.0000 C   0  0  0  0  0  0  0  0  0  0  0  0
   -0.9625    1.1333    0.0000 C   0  0  0  0  0  0  0  0  0  0  0  0
    0.9000    1.1125    0.0000 C   0  0  0  0  0  0  0  0  0  0  0  0
   -0.5000    1.9333    0.0000 C   0  0  0  0  0  0  0  0  0  0  0  0
   -1.9083    1.1500    0.0000 C   0  0  0  0  0  0  0  0  0  0  0  0
   -2.3625    1.9583    0.0000 C   0  0  0  0  0  0  0  0  0  0  0  0
   -6.9542    1.8708    0.0000 C   0  0  0  0  0  0  0  0  0  0  0  0
   -6.0542    2.8125    0.0000 C   0  0  0  0  0  0  0  0  0  0  0  0
   -6.0167    0.9708    0.0000 C   0  0  0  0  0  0  0  0  0  0  0  0
   -3.2833    1.9583    0.0000 C   0  0  0  0  0  0  0  0  0  0  0  0
  2  5  1  0  0  0  0
  3  1  1  0  0  0  0
  4  2  1  0  0  0  0
  5  8  1  0  0  0  0
  6  1  1  0  0  0  0
  7  3  1  0  0  0  0
  8  7  2  0  0  0  0
  9  1  2  0  0  0  0
 10  2  2  0  0  0  0
 11  4  1  0  0  0  0
 12 17  2  0  0  0  0
 13 12  1  0  0  0  0
 14 11  1  0  0  0  0
 15 11  2  0  0  0  0
 16 14  2  0  0  0  0
 17 15  1  0  0  0  0
 18 19  1  0  0  0  0
 19 23  2  0  0  0  0
 20  6  1  0  0  0  0
 21  6  1  0  0  0  0
 22  6  1  0  0  0  0
 23  7  1  0  0  0  0
 18  5  2  0  0  0  0
 16 12  1  0  0  0  0
M  END
> <#>
704

> <PLATE>
LAT009

> <ROW>
H

> <COL>
9

> <COORD>
H09

> <LATID>
LAT009H09

> <Supplier>
Chembridge

> <Suplier_CAT#>
5538394

> <Name>
Novel

> <Sec_Name>
158_C02

> <Concentration_(mM)>
2.5

> <IC50_(µM)>
19

> <Yeast_Active?>
-

> <Pubchem_CID>
871255

$$$$
