
  -ISIS-  08130814242D

 14 14  0  0  0  0  0  0  0  0999 V2000
    1.5313    2.6788    0.0000 N   0  0  0  0  0  0  0  0  0  0  0  0
    0.9062    3.7613    0.0000 N   0  0  0  0  0  0  0  0  0  0  0  0
    0.9062    1.5962    0.0000 C   0  0  0  0  0  0  0  0  0  0  0  0
    1.5312    0.5137    0.0000 C   0  0  0  0  0  0  0  0  0  0  0  0
    0.9062   -0.5688    0.0000 C   0  0  0  0  0  0  0  0  0  0  0  0
   -0.3438   -0.5688    0.0000 C   0  0  0  0  0  0  0  0  0  0  0  0
   -0.9688    0.5137    0.0000 C   0  0  0  0  0  0  0  0  0  0  0  0
   -0.3438    1.5962    0.0000 C   0  0  0  0  0  0  0  0  0  0  0  0
   -0.9688   -1.6513    0.0000 N   0  3  0  0  0  0  0  0  0  0  0  0
   -2.2188   -1.6513    0.0000 O   0  0  0  0  0  0  0  0  0  0  0  0
   -0.3438   -2.7339    0.0000 O   0  5  0  0  0  0  0  0  0  0  0  0
    2.7813    0.5137    0.0000 N   0  3  0  0  0  0  0  0  0  0  0  0
    3.4063    1.5962    0.0000 O   0  0  0  0  0  0  0  0  0  0  0  0
    3.4062   -0.5688    0.0000 O   0  5  0  0  0  0  0  0  0  0  0  0
  1  2  1  0  0  0  0
  3  4  1  0  0  0  0
  4  5  2  0  0  0  0
  5  6  1  0  0  0  0
  6  7  2  0  0  0  0
  7  8  1  0  0  0  0
  3  8  2  0  0  0  0
  9 10  2  0  0  0  0
  9 11  1  0  0  0  0
  6  9  1  0  0  0  0
 12 13  2  0  0  0  0
 12 14  1  0  0  0  0
  4 12  1  0  0  0  0
  1  3  1  0  0  0  0
M  CHG  4   9   1  11  -1  12   1  14  -1
M  END
> <#>
304

> <PLATE>
LAT004

> <ROW>
H

> <COL>
9

> <COORD>
H09

> <LATID>
LAT004H09

> <Supplier>
Sigma

> <Suplier_CAT#>
D-2630

> <Name>
2,4-Dinitro-Phenylhydrazine

> <Concentration_(mM)>
2.5

> <IC50_(µM)>
100

> <Yeast_Active?>
-

> <Pubchem_CID>
3772977

$$$$
