
  -ISIS-  08130814242D

 23 25  0  0  0  0  0  0  0  0999 V2000
   -5.8333    3.7708    0.0000 C   0  0  0  0  0  0  0  0  0  0  0  0
   -7.2792    3.7708    0.0000 N   0  0  3  0  0  0  0  0  0  0  0  0
  -10.1917    3.7125    0.0000 N   0  0  3  0  0  0  0  0  0  0  0  0
   -5.1000    2.5625    0.0000 N   0  0  0  0  0  0  0  0  0  0  0  0
  -11.6292    3.7125    0.0000 C   0  0  0  0  0  0  0  0  0  0  0  0
   -5.1000    5.0292    0.0000 O   0  0  0  0  0  0  0  0  0  0  0  0
   -8.0500    4.9667    0.0000 C   0  0  0  0  0  0  0  0  0  0  0  0
   -8.0042    2.4833    0.0000 C   0  0  0  0  0  0  0  0  0  0  0  0
   -9.4417    2.4833    0.0000 C   0  0  0  0  0  0  0  0  0  0  0  0
   -9.5042    4.9292    0.0000 C   0  0  0  0  0  0  0  0  0  0  0  0
   -3.7000    2.5625    0.0000 C   0  0  0  0  0  0  0  0  0  0  0  0
   -3.0208    3.7500    0.0000 C   0  0  0  0  0  0  0  0  0  0  0  0
  -12.3500    2.4458    0.0000 C   0  0  0  0  0  0  0  0  0  0  0  0
  -12.3500    4.9292    0.0000 C   0  0  0  0  0  0  0  0  0  0  0  0
   -1.6208    3.7708    0.0000 C   0  0  0  0  0  0  0  0  0  0  0  0
  -14.5542    3.7708    0.0000 C   0  0  0  0  0  0  0  0  0  0  0  0
  -13.8042    4.9667    0.0000 C   0  0  0  0  0  0  0  0  0  0  0  0
  -13.8500    2.4833    0.0000 C   0  0  0  0  0  0  0  0  0  0  0  0
   -0.9708    4.9792    0.0000 Cl  0  0  0  0  0  0  0  0  0  0  0  0
  -16.0000    3.7958    0.0000 F   0  0  0  0  0  0  0  0  0  0  0  0
   -1.5708    1.3625    0.0000 C   0  0  0  0  0  0  0  0  0  0  0  0
   -2.9708    1.3625    0.0000 C   0  0  0  0  0  0  0  0  0  0  0  0
   -0.8708    2.5958    0.0000 C   0  0  0  0  0  0  0  0  0  0  0  0
  2  1  1  0  0  0  0
  3  9  1  0  0  0  0
  4  1  1  0  0  0  0
  5  3  1  0  0  0  0
  6  1  2  0  0  0  0
  7  2  1  0  0  0  0
  8  2  1  0  0  0  0
  9  8  1  0  0  0  0
 10  7  1  0  0  0  0
 11  4  1  0  0  0  0
 12 11  1  0  0  0  0
 13  5  2  0  0  0  0
 14  5  1  0  0  0  0
 15 12  2  0  0  0  0
 16 17  1  0  0  0  0
 17 14  2  0  0  0  0
 18 13  1  0  0  0  0
 19 15  1  0  0  0  0
 20 16  1  0  0  0  0
 21 22  1  0  0  0  0
 22 11  2  0  0  0  0
 23 21  2  0  0  0  0
  3 10  1  0  0  0  0
 23 15  1  0  0  0  0
 16 18  2  0  0  0  0
M  END
> <#>
926

> <PLATE>
LAT012

> <ROW>
F

> <COL>
7

> <COORD>
F07

> <LATID>
LAT012F07

> <Supplier>
Chembridge

> <Suplier_CAT#>
5697074

> <Name>
Novel

> <Sec_Name>
221_H10

> <Concentration_(mM)>
2.5

> <IC50_(µM)>
100

> <Yeast_Active?>
-

> <Pubchem_CID>
761124

$$$$
