
  -ISIS-  08130814242D

 22 24  0  0  0  0  0  0  0  0999 V2000
   -1.1958   -0.2500    0.0000 C   0  0  0  0  0  0  0  0  0  0  0  0
   -1.8958    0.1708    0.0000 C   0  0  0  0  0  0  0  0  0  0  0  0
   -1.1958   -1.0500    0.0000 C   0  0  0  0  0  0  0  0  0  0  0  0
   -0.4958    0.1708    0.0000 C   0  0  0  0  0  0  0  0  0  0  0  0
    0.2292   -0.2500    0.0000 C   0  0  0  0  0  0  0  0  0  0  0  0
   -1.8958   -1.4500    0.0000 C   0  0  0  0  0  0  0  0  0  0  0  0
   -2.5958   -0.2500    0.0000 C   0  0  0  0  0  0  0  0  0  0  0  0
   -2.5958   -1.0500    0.0000 C   0  0  0  0  0  0  0  0  0  0  0  0
    0.9375    0.1208    0.0000 C   0  0  0  0  0  0  0  0  0  0  0  0
   -0.4958   -1.4500    0.0000 C   0  0  0  0  0  0  0  0  0  0  0  0
    0.2292   -1.0500    0.0000 C   0  0  0  0  0  0  0  0  0  0  0  0
   -1.8958    0.9708    0.0000 O   0  0  0  0  0  0  0  0  0  0  0  0
   -1.8958   -2.2667    0.0000 O   0  0  0  0  0  0  0  0  0  0  0  0
   -0.4958    0.9708    0.0000 N   0  0  0  0  0  0  0  0  0  0  0  0
    0.9500    0.9000    0.0000 O   0  0  0  0  0  0  0  0  0  0  0  0
    1.6375   -0.2792    0.0000 O   0  0  0  0  0  0  0  0  0  0  0  0
   -3.2958    0.1500    0.0000 C   0  0  0  0  0  0  0  0  0  0  0  0
   -3.2958   -1.4500    0.0000 C   0  0  0  0  0  0  0  0  0  0  0  0
    0.2292    1.3708    0.0000 C   0  0  0  0  0  0  0  0  0  0  0  0
   -3.9958   -0.2667    0.0000 C   0  0  0  0  0  0  0  0  0  0  0  0
   -3.9958   -1.0292    0.0000 C   0  0  0  0  0  0  0  0  0  0  0  0
    0.2375    2.1958    0.0000 C   0  0  0  0  0  0  0  0  0  0  0  0
  2  1  1  0  0  0  0
  3  1  2  0  0  0  0
  4  1  1  0  0  0  0
  5  4  2  0  0  0  0
  6  3  1  0  0  0  0
  7  2  1  0  0  0  0
  8  6  1  0  0  0  0
  9  5  1  0  0  0  0
 10  3  1  0  0  0  0
 11  5  1  0  0  0  0
 12  2  2  0  0  0  0
 13  6  2  0  0  0  0
 14  4  1  0  0  0  0
 15  9  2  0  0  0  0
 16  9  1  0  0  0  0
 17  7  1  0  0  0  0
 18  8  1  0  0  0  0
 19 14  1  0  0  0  0
 20 17  2  0  0  0  0
 21 18  2  0  0  0  0
 22 19  1  0  0  0  0
 10 11  2  0  0  0  0
  8  7  2  0  0  0  0
 21 20  1  0  0  0  0
M  END
> <#>
562

> <PLATE>
LAT008

> <ROW>
B

> <COL>
2

> <COORD>
B02

> <LATID>
LAT008B02

> <Supplier>
Chembridge

> <Suplier_CAT#>
5474467

> <Name>
Novel

> <Sec_Name>
136_H10

> <Concentration_(mM)>
2.5

> <IC50_(µM)>
100

> <Yeast_Active?>
-

> <Pubchem_CID>
NULL

$$$$
