
  -ISIS-  08130814242D

 26 29  0  0  0  0  0  0  0  0999 V2000
   -0.0833    1.6125    0.0000 C   0  0  0  0  0  0  0  0  0  0  0  0
   -0.4833    1.8333    0.0000 C   0  0  0  0  0  0  0  0  0  0  0  0
   -0.4833    0.9125    0.0000 N   0  0  3  0  0  0  0  0  0  0  0  0
   -0.0833    1.1333    0.0000 C   0  0  3  0  0  0  0  0  0  0  0  0
   -0.8833    1.5958    0.0000 C   0  0  0  0  0  0  0  0  0  0  0  0
   -0.8833    1.1333    0.0000 C   0  0  0  0  0  0  0  0  0  0  0  0
    0.2375    1.9333    0.0000 S   0  0  0  0  0  0  0  0  0  0  0  0
   -0.4000    2.2708    0.0000 C   0  0  0  0  0  0  0  0  0  0  0  0
    0.0542    2.3333    0.0000 S   0  0  0  0  0  0  0  0  0  0  0  0
    0.3000   -0.4875    0.0000 C   0  0  0  0  0  0  0  0  0  0  0  0
    0.3000   -0.9500    0.0000 N   0  0  0  0  0  0  0  0  0  0  0  0
   -0.4833    0.4500    0.0000 C   0  0  0  0  0  0  0  0  0  0  0  0
    0.7375   -0.3500    0.0000 N   0  0  0  0  0  0  0  0  0  0  0  0
    1.0000   -0.7042    0.0000 N   0  0  0  0  0  0  0  0  0  0  0  0
    0.7375   -1.0875    0.0000 C   0  0  0  0  0  0  0  0  0  0  0  0
   -1.2625    0.9125    0.0000 C   0  0  0  0  0  0  0  0  0  0  0  0
   -1.2625    1.8333    0.0000 C   0  0  0  0  0  0  0  0  0  0  0  0
   -0.1000   -0.2500    0.0000 S   0  0  0  0  0  0  0  0  0  0  0  0
   -0.7208    2.5958    0.0000 S   0  0  0  0  0  0  0  0  0  0  0  0
   -0.1000    0.2125    0.0000 C   0  0  0  0  0  0  0  0  0  0  0  0
   -0.8833    0.2333    0.0000 O   0  0  0  0  0  0  0  0  0  0  0  0
    0.3542    1.2708    0.0000 C   0  0  0  0  0  0  0  0  0  0  0  0
    0.3542    0.9958    0.0000 C   0  0  0  0  0  0  0  0  0  0  0  0
   -1.6625    1.1333    0.0000 C   0  0  0  0  0  0  0  0  0  0  0  0
   -1.6625    1.6125    0.0000 C   0  0  0  0  0  0  0  0  0  0  0  0
   -2.0625    1.8708    0.0000 C   0  0  0  0  0  0  0  0  0  0  0  0
  2  1  2  0  0  0  0
  3  4  1  0  0  0  0
  4  1  1  0  0  0  0
  5  2  1  0  0  0  0
  6  3  1  0  0  0  0
  7  1  1  0  0  0  0
  8  2  1  0  0  0  0
  9  7  1  0  0  0  0
 10 18  1  0  0  0  0
 11 10  1  0  0  0  0
 12  3  1  0  0  0  0
 13 10  2  0  0  0  0
 14 13  1  0  0  0  0
 15 11  1  0  0  0  0
 16  6  1  0  0  0  0
 17  5  1  0  0  0  0
 18 20  1  0  0  0  0
 19  8  2  0  0  0  0
 20 12  1  0  0  0  0
 21 12  2  0  0  0  0
 22  4  1  0  0  0  0
 23  4  1  0  0  0  0
 24 16  2  0  0  0  0
 25 17  2  0  0  0  0
 26 25  1  0  0  0  0
  8  9  1  0  0  0  0
  6  5  2  0  0  0  0
 24 25  1  0  0  0  0
 14 15  2  0  0  0  0
M  END
> <#>
890

> <PLATE>
LAT012

> <ROW>
B

> <COL>
3

> <COORD>
B03

> <LATID>
LAT012B03

> <Supplier>
Chembridge

> <Suplier_CAT#>
5710896

> <Name>
Novel

> <Sec_Name>
225_D05

> <Concentration_(mM)>
2.5

> <IC50_(µM)>
30

> <Yeast_Active?>
-

> <Pubchem_CID>
NULL

$$$$
