
  -ISIS-  08130814242D

 22 22  0  0  0  0  0  0  0  0999 V2000
    4.9417   -3.7542    0.0000 C   0  0  0  0  0  0  0  0  0  0  0  0
    4.1500   -3.9667    0.0000 O   0  0  0  0  0  0  0  0  0  0  0  0
   -2.3708   -0.5292    0.0000 C   0  0  0  0  0  0  0  0  0  0  0  0
   -3.1958   -0.5292    0.0000 C   0  0  0  0  0  0  0  0  0  0  0  0
    5.5292   -4.3292    0.0000 O   0  0  0  0  0  0  0  0  0  0  0  0
   -2.1125    0.2583    0.0000 C   0  0  3  0  0  0  0  0  0  0  0  0
    5.1542   -2.9542    0.0000 C   0  0  0  0  0  0  0  0  0  0  0  0
   -3.4458    0.2583    0.0000 C   0  0  0  0  0  0  0  0  0  0  0  0
    6.3250   -4.1167    0.0000 C   0  0  0  0  0  0  0  0  0  0  0  0
   -1.3208    0.4708    0.0000 C   0  0  0  0  0  0  0  0  0  0  0  0
   -2.7833    0.7375    0.0000 C   0  0  0  0  0  0  0  0  0  0  0  0
    4.5667   -2.3750    0.0000 C   0  0  0  0  0  0  0  0  0  0  0  0
   -0.7333   -0.1125    0.0000 C   0  0  0  0  0  0  0  0  0  0  0  0
    4.2000   -1.0000    0.0000 C   0  0  0  0  0  0  0  0  0  0  0  0
    4.7792   -1.5792    0.0000 C   0  0  0  0  0  0  0  0  0  0  0  0
    0.0625    0.1000    0.0000 C   0  0  0  0  0  0  0  0  0  0  0  0
    0.6417   -0.4792    0.0000 C   0  0  0  0  0  0  0  0  0  0  0  0
    1.4417   -0.2667    0.0000 C   0  0  0  0  0  0  0  0  0  0  0  0
    2.0250   -0.8417    0.0000 C   0  0  0  0  0  0  0  0  0  0  0  0
    2.8167   -0.6292    0.0000 C   0  0  0  0  0  0  0  0  0  0  0  0
    3.4042   -1.2125    0.0000 C   0  0  0  0  0  0  0  0  0  0  0  0
    6.9125   -4.7000    0.0000 C   0  0  0  0  0  0  0  0  0  0  0  0
  2  1  2  0  0  0  0
  3  6  1  0  0  0  0
  4  3  2  0  0  0  0
  5  1  1  0  0  0  0
  6 10  1  0  0  0  0
  7  1  1  0  0  0  0
  8 11  1  0  0  0  0
  9  5  1  0  0  0  0
 10 13  1  0  0  0  0
 11  6  1  0  0  0  0
 12  7  1  0  0  0  0
 13 16  1  0  0  0  0
 14 15  1  0  0  0  0
 15 12  1  0  0  0  0
 16 17  1  0  0  0  0
 17 18  1  0  0  0  0
 18 19  1  0  0  0  0
 19 20  1  0  0  0  0
 20 21  1  0  0  0  0
 21 14  1  0  0  0  0
 22  9  1  0  0  0  0
  4  8  1  0  0  0  0
M  END
> <#>
42

> <PLATE>
LAT001

> <ROW>
B

> <COL>
7

> <COORD>
B07

> <LATID>
LAT001B07

> <Supplier>
Microsource

> <Suplier_CAT#>
00310017

> <Name>
Chaulmoogric Acid, Ethyl Ester

> <Concentration_(mM)>
2.5

> <IC50_(µM)>
inactive

> <Yeast_Active?>
-

> <Pubchem_CID>
2700

> <Description>
Antilepretic

$$$$
