
  -ISIS-  08130814242D

 22 23  0  0  0  0  0  0  0  0999 V2000
   -1.9458   -0.1875    0.0000 C   0  0  0  0  0  0  0  0  0  0  0  0
   -2.8000    0.2958    0.0000 C   0  0  3  0  0  0  0  0  0  0  0  0
   -0.2458   -0.1875    0.0000 N   0  0  0  0  0  0  0  0  0  0  0  0
   -1.0833    0.2958    0.0000 N   0  0  0  0  0  0  0  0  0  0  0  0
   -1.9708   -1.1792    0.0000 O   0  0  0  0  0  0  0  0  0  0  0  0
   -3.6625   -0.2167    0.0000 C   0  0  0  0  0  0  0  0  0  0  0  0
    0.6375    0.2958    0.0000 C   0  0  0  0  0  0  0  0  0  0  0  0
    1.5000   -0.2167    0.0000 C   0  0  0  0  0  0  0  0  0  0  0  0
    3.1542   -1.2375    0.0000 C   0  0  0  0  0  0  0  0  0  0  0  0
   -2.8000    1.2833    0.0000 O   0  0  0  0  0  0  0  0  0  0  0  0
    1.4792   -1.2042    0.0000 C   0  0  0  0  0  0  0  0  0  0  0  0
    2.3542    0.2625    0.0000 C   0  0  0  0  0  0  0  0  0  0  0  0
    3.2000   -0.2500    0.0000 C   0  0  0  0  0  0  0  0  0  0  0  0
    2.3167   -1.7167    0.0000 C   0  0  0  0  0  0  0  0  0  0  0  0
    4.0000   -1.7792    0.0000 O   0  0  0  0  0  0  0  0  0  0  0  0
   -4.5000    0.2958    0.0000 C   0  0  0  0  0  0  0  0  0  0  0  0
   -3.6625   -1.2042    0.0000 C   0  0  0  0  0  0  0  0  0  0  0  0
   -3.6625    1.7958    0.0000 C   0  0  0  0  0  0  0  0  0  0  0  0
    4.8792   -1.3000    0.0000 C   0  0  0  0  0  0  0  0  0  0  0  0
   -5.3625   -0.2167    0.0000 C   0  0  0  0  0  0  0  0  0  0  0  0
   -4.5000   -1.6875    0.0000 C   0  0  0  0  0  0  0  0  0  0  0  0
   -5.3625   -1.2042    0.0000 C   0  0  0  0  0  0  0  0  0  0  0  0
  2  1  1  0  0  0  0
  3  4  1  0  0  0  0
  4  1  1  0  0  0  0
  5  1  2  0  0  0  0
  6  2  1  0  0  0  0
  7  3  2  0  0  0  0
  8  7  1  0  0  0  0
  9 13  1  0  0  0  0
 10  2  1  0  0  0  0
 11  8  2  0  0  0  0
 12  8  1  0  0  0  0
 13 12  2  0  0  0  0
 14 11  1  0  0  0  0
 15  9  1  0  0  0  0
 16  6  1  0  0  0  0
 17  6  2  0  0  0  0
 18 10  1  0  0  0  0
 19 15  1  0  0  0  0
 20 16  2  0  0  0  0
 21 17  1  0  0  0  0
 22 21  2  0  0  0  0
 22 20  1  0  0  0  0
  9 14  2  0  0  0  0
M  END
> <#>
1105

> <PLATE>
LAT014

> <ROW>
A

> <COL>
10

> <COORD>
A10

> <LATID>
LAT014A10

> <Supplier>
Chembridge

> <Suplier_CAT#>
5189203

> <Name>
Novel

> <Concentration_(mM)>
2.5

> <IC50_(µM)>
>100

> <Yeast_Active?>
-

> <Pubchem_CID>
787830

$$$$
