
  -ISIS-  08130814242D

 22 23  0  0  0  0  0  0  0  0999 V2000
    0.3667    0.1000    0.0000 C   0  0  0  0  0  0  0  0  0  0  0  0
   -0.9125    0.1500    0.0000 C   0  0  0  0  0  0  0  0  0  0  0  0
   -0.2708    0.5000    0.0000 C   0  0  0  0  0  0  0  0  0  0  0  0
   -1.5333    0.5208    0.0000 C   0  0  0  0  0  0  0  0  0  0  0  0
   -2.1708    0.1833    0.0000 C   0  0  0  0  0  0  0  0  0  0  0  0
    1.0042    0.4625    0.0000 C   0  0  0  0  0  0  0  0  0  0  0  0
   -2.1958   -0.5500    0.0000 C   0  0  0  0  0  0  0  0  0  0  0  0
   -0.9333   -0.5792    0.0000 C   0  0  0  0  0  0  0  0  0  0  0  0
   -0.2958    1.2208    0.0000 O   0  0  0  0  0  0  0  0  0  0  0  0
   -1.5625   -0.9167    0.0000 C   0  0  0  0  0  0  0  0  0  0  0  0
    1.6292    0.0625    0.0000 C   0  0  0  0  0  0  0  0  0  0  0  0
    2.2792    0.4125    0.0000 C   0  0  0  0  0  0  0  0  0  0  0  0
   -2.7958    0.5708    0.0000 O   0  0  0  0  0  0  0  0  0  0  0  0
    2.8875    0.0125    0.0000 C   0  0  0  0  0  0  0  0  0  0  0  0
   -2.8458   -0.9000    0.0000 O   0  0  0  0  0  0  0  0  0  0  0  0
    3.5042    0.3833    0.0000 O   0  0  0  0  0  0  0  0  0  0  0  0
    2.2500   -1.0542    0.0000 C   0  0  0  0  0  0  0  0  0  0  0  0
    1.6375   -0.6542    0.0000 C   0  0  0  0  0  0  0  0  0  0  0  0
    2.9042   -0.7375    0.0000 C   0  0  0  0  0  0  0  0  0  0  0  0
   -3.4458    0.2208    0.0000 C   0  0  0  0  0  0  0  0  0  0  0  0
   -3.4625   -0.5042    0.0000 C   0  0  0  0  0  0  0  0  0  0  0  0
    4.1292    0.0333    0.0000 C   0  0  0  0  0  0  0  0  0  0  0  0
  2  3  1  0  0  0  0
  3  1  1  0  0  0  0
  4  2  2  0  0  0  0
  5  4  1  0  0  0  0
  6  1  2  0  0  0  0
  7 10  1  0  0  0  0
  8  2  1  0  0  0  0
  9  3  2  0  0  0  0
 10  8  2  0  0  0  0
 11  6  1  0  0  0  0
 12 11  2  0  0  0  0
 13  5  1  0  0  0  0
 14 12  1  0  0  0  0
 15  7  1  0  0  0  0
 16 14  1  0  0  0  0
 17 18  2  0  0  0  0
 18 11  1  0  0  0  0
 19 17  1  0  0  0  0
 20 13  1  0  0  0  0
 21 15  1  0  0  0  0
 22 16  1  0  0  0  0
 14 19  2  0  0  0  0
  5  7  2  0  0  0  0
M  END
> <#>
610

> <PLATE>
LAT008

> <ROW>
B

> <COL>
8

> <COORD>
B08

> <LATID>
LAT008B08

> <Supplier>
Chembridge

> <Suplier_CAT#>
5532861

> <Name>
Novel

> <Sec_Name>
155_A09

> <Concentration_(mM)>
2.5

> <IC50_(µM)>
48

> <Yeast_Active?>
-

> <Pubchem_CID>
2850479

$$$$
