
  -ISIS-  08130814242D

  7  7  0  0  0  0  0  0  0  0999 V2000
    7.1257   -3.2186    0.0000 C   0  0  0  0  0  0  0  0  0  0  0  0
    6.5007   -4.3011    0.0000 N   0  0  0  0  0  0  0  0  0  0  0  0
    5.2507   -4.3011    0.0000 C   0  0  0  0  0  0  0  0  0  0  0  0
    4.6257   -3.2186    0.0000 C   0  0  0  0  0  0  0  0  0  0  0  0
    5.2507   -2.1360    0.0000 C   0  0  0  0  0  0  0  0  0  0  0  0
    6.5007   -2.1360    0.0000 N   0  0  0  0  0  0  0  0  0  0  0  0
    8.3757   -3.2186    0.0000 N   0  0  0  0  0  0  0  0  0  0  0  0
  1  2  1  0  0  0  0
  2  3  2  0  0  0  0
  3  4  1  0  0  0  0
  4  5  2  0  0  0  0
  5  6  1  0  0  0  0
  1  6  2  0  0  0  0
  1  7  1  0  0  0  0
M  END
> <#>
299

> <PLATE>
LAT004

> <ROW>
C

> <COL>
9

> <COORD>
C09

> <LATID>
LAT004C09

> <Supplier>
Aldrich

> <Suplier_CAT#>
A78608

> <Name>
2-Aminopyrimidine

> <Concentration_(mM)>
2.5

> <IC50_(µM)>
inactive

> <Yeast_Active?>
-

> <Pubchem_CID>
7978

$$$$
