
  -ISIS-  08130814242D

 23 24  0  0  0  0  0  0  0  0999 V2000
    2.6292   -1.4875    0.0000 C   0  0  0  0  0  0  0  0  0  0  0  0
    0.6792   -2.6167    0.0000 C   0  0  0  0  0  0  0  0  0  0  0  0
    3.9292   -1.4875    0.0000 N   0  0  0  0  0  0  0  0  0  0  0  0
    0.0292   -3.0000    0.0000 C   0  0  0  0  0  0  0  0  0  0  0  0
    0.6792   -1.8667    0.0000 C   0  0  0  0  0  0  0  0  0  0  0  0
    3.2792   -1.8667    0.0000 N   0  0  0  0  0  0  0  0  0  0  0  0
    1.3292   -1.4875    0.0000 O   0  0  0  0  0  0  0  0  0  0  0  0
    2.6292   -0.7375    0.0000 O   0  0  0  0  0  0  0  0  0  0  0  0
    1.9792   -1.8667    0.0000 C   0  0  0  0  0  0  0  0  0  0  0  0
    0.0292   -1.4875    0.0000 C   0  0  0  0  0  0  0  0  0  0  0  0
   -0.6125   -2.6167    0.0000 C   0  0  0  0  0  0  0  0  0  0  0  0
    4.5792   -1.8667    0.0000 C   0  0  0  0  0  0  0  0  0  0  0  0
    1.3292   -3.0000    0.0000 Cl  0  0  0  0  0  0  0  0  0  0  0  0
    6.5292   -0.7500    0.0000 C   0  0  0  0  0  0  0  0  0  0  0  0
    5.2292   -1.5000    0.0000 C   0  0  0  0  0  0  0  0  0  0  0  0
    7.1792   -0.3667    0.0000 S   0  0  0  0  0  0  0  0  0  0  0  0
   -0.6125   -1.8667    0.0000 C   0  0  0  0  0  0  0  0  0  0  0  0
   -1.2625   -3.0000    0.0000 Cl  0  0  0  0  0  0  0  0  0  0  0  0
    5.8792   -0.3667    0.0000 C   0  0  0  0  0  0  0  0  0  0  0  0
    6.5292   -1.5000    0.0000 C   0  0  0  0  0  0  0  0  0  0  0  0
    5.2292   -0.7500    0.0000 C   0  0  0  0  0  0  0  0  0  0  0  0
    5.8792   -1.8667    0.0000 C   0  0  0  0  0  0  0  0  0  0  0  0
    7.8292   -0.7500    0.0000 C   0  0  0  0  0  0  0  0  0  0  0  0
  2  5  2  0  0  0  0
  3  6  1  0  0  0  0
  4  2  1  0  0  0  0
  5  7  1  0  0  0  0
  6  1  1  0  0  0  0
  7  9  1  0  0  0  0
  8  1  2  0  0  0  0
  9  1  1  0  0  0  0
 10  5  1  0  0  0  0
 11 17  1  0  0  0  0
 12  3  2  0  0  0  0
 13  2  1  0  0  0  0
 14 20  1  0  0  0  0
 15 12  1  0  0  0  0
 16 14  1  0  0  0  0
 17 10  2  0  0  0  0
 18 11  1  0  0  0  0
 19 21  1  0  0  0  0
 20 22  2  0  0  0  0
 21 15  2  0  0  0  0
 22 15  1  0  0  0  0
 23 16  1  0  0  0  0
  4 11  2  0  0  0  0
 19 14  2  0  0  0  0
M  END
> <#>
575

> <PLATE>
LAT008

> <ROW>
G

> <COL>
3

> <COORD>
G03

> <LATID>
LAT008G03

> <Supplier>
Chembridge

> <Suplier_CAT#>
5478140

> <Name>
Novel

> <Sec_Name>
139_D02

> <Concentration_(mM)>
2.5

> <IC50_(µM)>
0.25

> <Yeast_Active?>
-

> <Pubchem_CID>
1185494

$$$$
