
  -ISIS-  08130814242D

 24 27  0  0  0  0  0  0  0  0999 V2000
    0.0542   -1.4292    0.0000 N   0  0  0  0  0  0  0  0  0  0  0  0
    0.0542   -2.8500    0.0000 N   0  0  3  0  0  0  0  0  0  0  0  0
    0.5542   -2.1500    0.0000 C   0  0  0  0  0  0  0  0  0  0  0  0
   -0.7833   -1.7042    0.0000 C   0  0  0  0  0  0  0  0  0  0  0  0
   -0.7833   -2.5875    0.0000 C   0  0  0  0  0  0  0  0  0  0  0  0
   -4.5833   -1.2500    0.0000 C   0  0  0  0  0  0  0  0  0  0  0  0
   -3.8208   -1.7042    0.0000 C   0  0  0  0  0  0  0  0  0  0  0  0
   -5.3458   -1.6875    0.0000 C   0  0  0  0  0  0  0  0  0  0  0  0
   -3.0625   -1.2667    0.0000 N   0  0  0  0  0  0  0  0  0  0  0  0
   -1.5458   -1.2667    0.0000 C   0  0  0  0  0  0  0  0  0  0  0  0
   -1.5458   -3.0292    0.0000 C   0  0  0  0  0  0  0  0  0  0  0  0
   -4.5833   -0.3667    0.0000 C   0  0  0  0  0  0  0  0  0  0  0  0
   -2.3000   -1.7042    0.0000 C   0  0  0  0  0  0  0  0  0  0  0  0
   -6.0917   -1.2500    0.0000 C   0  0  0  0  0  0  0  0  0  0  0  0
   -5.3458    0.0708    0.0000 C   0  0  0  0  0  0  0  0  0  0  0  0
   -6.0917   -0.3667    0.0000 C   0  0  0  0  0  0  0  0  0  0  0  0
   -2.3000   -2.5875    0.0000 C   0  0  0  0  0  0  0  0  0  0  0  0
    0.3542   -3.6875    0.0000 C   0  0  0  0  0  0  0  0  0  0  0  0
    1.4375   -2.1500    0.0000 C   0  0  0  0  0  0  0  0  0  0  0  0
   -3.8208    0.0958    0.0000 O   0  0  0  0  0  0  0  0  0  0  0  0
   -5.3458   -2.5667    0.0000 C   0  0  0  0  0  0  0  0  0  0  0  0
   -6.8542   -1.6875    0.0000 C   0  0  0  0  0  0  0  0  0  0  0  0
   -6.0917   -3.0042    0.0000 C   0  0  0  0  0  0  0  0  0  0  0  0
   -6.8542   -2.5667    0.0000 C   0  0  0  0  0  0  0  0  0  0  0  0
  2  3  1  0  0  0  0
  3  1  2  0  0  0  0
  4  1  1  0  0  0  0
  5  4  2  0  0  0  0
  6  7  1  0  0  0  0
  7  9  2  0  0  0  0
  8  6  2  0  0  0  0
  9 13  1  0  0  0  0
 10  4  1  0  0  0  0
 11  5  1  0  0  0  0
 12  6  1  0  0  0  0
 13 10  2  0  0  0  0
 14  8  1  0  0  0  0
 15 12  2  0  0  0  0
 16 15  1  0  0  0  0
 17 13  1  0  0  0  0
 18  2  1  0  0  0  0
 19  3  1  0  0  0  0
 20 12  1  0  0  0  0
 21  8  1  0  0  0  0
 22 14  1  0  0  0  0
 23 21  2  0  0  0  0
 24 23  1  0  0  0  0
  5  2  1  0  0  0  0
 11 17  2  0  0  0  0
 16 14  2  0  0  0  0
 22 24  2  0  0  0  0
M  END
> <#>
820

> <PLATE>
LAT011

> <ROW>
D

> <COL>
4

> <COORD>
D04

> <LATID>
LAT011D04

> <Supplier>
Chembridge

> <Suplier_CAT#>
5663000

> <Name>
Novel

> <Sec_Name>
206_H09

> <Concentration_(mM)>
2.5

> <IC50_(µM)>
22

> <Yeast_Active?>
-

> <Pubchem_CID>
NULL

$$$$
