
  -ISIS-  08130814242D

 20 19  0  0  0  0  0  0  0  0999 V2000
    4.2401    0.6352    0.0000 C   0  0  0  0  0  0  0  0  0  0  0  0
    3.1576    1.2602    0.0000 O   0  0  0  0  0  0  0  0  0  0  0  0
    2.0751    0.6352    0.0000 C   0  0  0  0  0  0  0  0  0  0  0  0
    2.0751   -0.6148    0.0000 C   0  0  0  0  0  0  0  0  0  0  0  0
    0.9925   -1.2398    0.0000 C   0  0  0  0  0  0  0  0  0  0  0  0
   -0.0900   -0.6148    0.0000 C   0  0  0  0  0  0  0  0  0  0  0  0
   -0.0900    0.6352    0.0000 C   0  0  0  0  0  0  0  0  0  0  0  0
    0.9925    1.2602    0.0000 C   0  0  0  0  0  0  0  0  0  0  0  0
   -1.1725    1.2602    0.0000 C   0  0  0  0  0  0  0  0  0  0  0  0
   -2.2550    0.6352    0.0000 C   0  0  0  0  0  0  0  0  0  0  0  0
   -3.3376    1.2602    0.0000 C   0  0  0  0  0  0  0  0  0  0  0  0
   -3.3376    2.5102    0.0000 C   0  0  0  0  0  0  0  0  0  0  0  0
   -2.2550    3.1352    0.0000 C   0  0  0  0  0  0  0  0  0  0  0  0
   -1.1725    2.5102    0.0000 C   0  0  0  0  0  0  0  0  0  0  0  0
   -4.4201    3.1352    0.0000 N   0  3  0  0  0  0  0  0  0  0  0  0
   -4.4201    0.6352    0.0000 O   0  0  0  0  0  0  0  0  0  0  0  0
   -5.5026    1.2602    0.0000 C   0  0  0  0  0  0  0  0  0  0  0  0
    3.1576   -1.2398    0.0000 N   0  3  0  0  0  0  0  0  0  0  0  0
   -0.6276   -2.4898    0.0000 Cl  0  5  0  0  0  0  0  0  0  0  0  0
   -1.8776   -2.4898    0.0000 Cl  0  5  0  0  0  0  0  0  0  0  0  0
  1  2  1  0  0  0  0
  2  3  1  0  0  0  0
  3  4  2  0  0  0  0
  4  5  1  0  0  0  0
  5  6  2  0  0  0  0
  6  7  1  0  0  0  0
  7  8  2  0  0  0  0
  3  8  1  0  0  0  0
  7  9  1  0  0  0  0
  9 10  2  0  0  0  0
 10 11  1  0  0  0  0
 11 12  2  0  0  0  0
 12 13  1  0  0  0  0
 13 14  2  0  0  0  0
  9 14  1  0  0  0  0
 12 15  1  0  0  0  0
 11 16  1  0  0  0  0
 16 17  1  0  0  0  0
  4 18  1  0  0  0  0
M  CHG  4  15   1  18   1  19  -1  20  -1
M  END
> <#>
398

> <PLATE>
LAT005

> <ROW>
F

> <COL>
11

> <COORD>
F11

> <LATID>
LAT005F11

> <Supplier>
Sigma

> <Suplier_CAT#>
D-3252

> <Name>
O-Dianisidine Dihydrochloride

> <Concentration_(mM)>
2.5

> <IC50_(µM)>
>100

> <Yeast_Active?>
-

> <Pubchem_CID>
8411

$$$$
