
  -ISIS-  08130814242D

 26 28  0  0  0  0  0  0  0  0999 V2000
    6.6667   -2.6000    0.0000 C   0  0  0  0  0  0  0  0  0  0  0  0
    7.3792   -3.8417    0.0000 N   0  0  3  0  0  0  0  0  0  0  0  0
    8.1000   -2.6000    0.0000 N   0  0  3  0  0  0  0  0  0  0  0  0
    8.1000   -3.4292    0.0000 C   0  0  0  0  0  0  0  0  0  0  0  0
    3.6000   -2.1542    0.0000 C   0  0  0  0  0  0  0  0  0  0  0  0
    6.6667   -3.4292    0.0000 C   0  0  0  0  0  0  0  0  0  0  0  0
    7.3792   -2.1792    0.0000 C   0  0  0  0  0  0  0  0  0  0  0  0
    3.2000   -3.4250    0.0000 N   0  0  3  0  0  0  0  0  0  0  0  0
    3.8625   -2.9292    0.0000 C   0  0  0  0  0  0  0  0  0  0  0  0
    2.5292   -2.9417    0.0000 N   0  0  0  0  0  0  0  0  0  0  0  0
    5.2667   -2.1792    0.0000 C   0  0  0  0  0  0  0  0  0  0  0  0
    2.7792   -2.1542    0.0000 C   0  0  0  0  0  0  0  0  0  0  0  0
    3.2042   -4.2500    0.0000 C   0  0  0  0  0  0  0  0  0  0  0  0
    8.8167   -3.8417    0.0000 O   0  0  0  0  0  0  0  0  0  0  0  0
    5.9500   -3.8417    0.0000 O   0  0  0  0  0  0  0  0  0  0  0  0
    7.3792   -1.3542    0.0000 O   0  0  0  0  0  0  0  0  0  0  0  0
    4.3375   -3.4917    0.0000 O   0  0  0  0  0  0  0  0  0  0  0  0
    8.8167   -2.1875    0.0000 C   0  0  0  0  0  0  0  0  0  0  0  0
    7.3792   -4.6667    0.0000 C   0  0  0  0  0  0  0  0  0  0  0  0
    3.9292   -4.6542    0.0000 C   0  0  0  0  0  0  0  0  0  0  0  0
    2.5000   -4.6667    0.0000 C   0  0  0  0  0  0  0  0  0  0  0  0
    3.2250   -5.9000    0.0000 C   0  0  0  0  0  0  0  0  0  0  0  0
    2.5042   -5.4917    0.0000 C   0  0  0  0  0  0  0  0  0  0  0  0
    3.9375   -5.4792    0.0000 C   0  0  0  0  0  0  0  0  0  0  0  0
    3.2375   -6.7250    0.0000 Br  0  0  0  0  0  0  0  0  0  0  0  0
    2.2917   -1.4917    0.0000 C   0  0  0  0  0  0  0  0  0  0  0  0
  2  6  1  0  0  0  0
  3  7  1  0  0  0  0
  4  3  1  0  0  0  0
  5 11  1  0  0  0  0
  6  1  1  0  0  0  0
  7  1  1  0  0  0  0
  8  9  1  0  0  0  0
  9  5  2  0  0  0  0
 10 12  2  0  0  0  0
 11  1  2  0  0  0  0
 12  5  1  0  0  0  0
 13  8  1  0  0  0  0
 14  4  2  0  0  0  0
 15  6  2  0  0  0  0
 16  7  2  0  0  0  0
 17  9  1  0  0  0  0
 18  3  1  0  0  0  0
 19  2  1  0  0  0  0
 20 13  2  0  0  0  0
 21 13  1  0  0  0  0
 22 23  1  0  0  0  0
 23 21  2  0  0  0  0
 24 20  1  0  0  0  0
 25 22  1  0  0  0  0
 26 12  1  0  0  0  0
  2  4  1  0  0  0  0
 10  8  1  0  0  0  0
 22 24  2  0  0  0  0
M  END
> <#>
670

> <PLATE>
LAT009

> <ROW>
F

> <COL>
5

> <COORD>
F05

> <LATID>
LAT009F05

> <Supplier>
Chembridge

> <Suplier_CAT#>
5531561

> <Name>
Novel

> <Sec_Name>
153_A05

> <Concentration_(mM)>
2.5

> <IC50_(µM)>
inactive

> <Yeast_Active?>
-

> <Pubchem_CID>
NULL

$$$$
