
  -ISIS-  08130814242D

 23 25  0  0  0  0  0  0  0  0999 V2000
   -0.7833    1.9125    0.0000 N   0  0  3  0  0  0  0  0  0  0  0  0
   -1.8833    1.5500    0.0000 C   0  0  0  0  0  0  0  0  0  0  0  0
   -1.8833    2.2708    0.0000 C   0  0  0  0  0  0  0  0  0  0  0  0
   -1.1833    2.4958    0.0000 C   0  0  0  0  0  0  0  0  0  0  0  0
   -1.1833    1.3333    0.0000 C   0  0  0  0  0  0  0  0  0  0  0  0
   -0.0625    1.8500    0.0000 C   0  0  0  0  0  0  0  0  0  0  0  0
   -2.5000    1.1958    0.0000 C   0  0  0  0  0  0  0  0  0  0  0  0
   -2.5000    2.6333    0.0000 C   0  0  0  0  0  0  0  0  0  0  0  0
   -3.1458    1.5500    0.0000 C   0  0  0  0  0  0  0  0  0  0  0  0
   -3.1458    2.2708    0.0000 C   0  0  0  0  0  0  0  0  0  0  0  0
    0.2542    1.2125    0.0000 N   0  0  0  0  0  0  0  0  0  0  0  0
    0.3542    2.4583    0.0000 N   0  0  0  0  0  0  0  0  0  0  0  0
   -0.9458    0.6333    0.0000 O   0  0  0  0  0  0  0  0  0  0  0  0
   -0.9458    3.1958    0.0000 O   0  0  0  0  0  0  0  0  0  0  0  0
    0.9792    1.1333    0.0000 C   0  0  0  0  0  0  0  0  0  0  0  0
    1.0792    2.4125    0.0000 C   0  0  0  0  0  0  0  0  0  0  0  0
    1.4000    1.7500    0.0000 C   0  0  0  0  0  0  0  0  0  0  0  0
   -2.5000    0.4500    0.0000 Cl  0  0  0  0  0  0  0  0  0  0  0  0
   -2.5000    3.3708    0.0000 Cl  0  0  0  0  0  0  0  0  0  0  0  0
   -3.8000    2.6125    0.0000 Cl  0  0  0  0  0  0  0  0  0  0  0  0
   -3.8000    1.2125    0.0000 Cl  0  0  0  0  0  0  0  0  0  0  0  0
    1.2792    0.4708    0.0000 C   0  0  0  0  0  0  0  0  0  0  0  0
    1.4792    3.0333    0.0000 C   0  0  0  0  0  0  0  0  0  0  0  0
  2  5  1  0  0  0  0
  3  4  1  0  0  0  0
  4  1  1  0  0  0  0
  5  1  1  0  0  0  0
  6  1  1  0  0  0  0
  7  2  2  0  0  0  0
  8  3  2  0  0  0  0
  9  7  1  0  0  0  0
 10  8  1  0  0  0  0
 11  6  1  0  0  0  0
 12  6  2  0  0  0  0
 13  5  2  0  0  0  0
 14  4  2  0  0  0  0
 15 11  2  0  0  0  0
 16 12  1  0  0  0  0
 17 16  2  0  0  0  0
 18  7  1  0  0  0  0
 19  8  1  0  0  0  0
 20 10  1  0  0  0  0
 21  9  1  0  0  0  0
 22 15  1  0  0  0  0
 23 16  1  0  0  0  0
  2  3  1  0  0  0  0
 15 17  1  0  0  0  0
 10  9  2  0  0  0  0
M  END
> <#>
1026

> <PLATE>
LAT013

> <ROW>
B

> <COL>
10

> <COORD>
B10

> <LATID>
LAT013B10

> <Supplier>
Chembridge

> <Suplier_CAT#>
5633606

> <Name>
Novel

> <Sec_Name>
193_F09

> <Concentration_(mM)>
2.5

> <IC50_(µM)>
inactive

> <Yeast_Active?>
-

> <Pubchem_CID>
NULL

$$$$
