
  -ISIS-  08130814242D

 14 14  0  0  0  0  0  0  0  0999 V2000
    4.1167   -2.4167    0.0000 S   0  0  3  0  0  0  0  0  0  0  0  0
    4.8667   -2.4167    0.0000 N   0  0  0  0  0  0  0  0  0  0  0  0
    3.3667   -2.4167    0.0000 C   0  0  0  0  0  0  0  0  0  0  0  0
    5.2417   -1.7750    0.0000 C   0  0  0  0  0  0  0  0  0  0  0  0
    4.1167   -3.1667    0.0000 O   0  0  0  0  0  0  0  0  0  0  0  0
    4.1167   -1.6667    0.0000 O   0  0  0  0  0  0  0  0  0  0  0  0
    5.9917   -1.7750    0.0000 O   0  0  0  0  0  0  0  0  0  0  0  0
    2.9917   -3.0667    0.0000 C   0  0  0  0  0  0  0  0  0  0  0  0
    2.9917   -1.7667    0.0000 C   0  0  0  0  0  0  0  0  0  0  0  0
    1.8667   -2.4167    0.0000 C   0  0  0  0  0  0  0  0  0  0  0  0
    1.1167   -2.4167    0.0000 N   0  0  0  0  0  0  0  0  0  0  0  0
    2.2417   -1.7667    0.0000 C   0  0  0  0  0  0  0  0  0  0  0  0
    2.2417   -3.0667    0.0000 C   0  0  0  0  0  0  0  0  0  0  0  0
    4.8667   -1.1292    0.0000 C   0  0  0  0  0  0  0  0  0  0  0  0
  2  1  1  0  0  0  0
  3  1  1  0  0  0  0
  4  2  1  0  0  0  0
  5  1  2  0  0  0  0
  6  1  2  0  0  0  0
  7  4  2  0  0  0  0
  8  3  1  0  0  0  0
  9  3  2  0  0  0  0
 10 12  2  0  0  0  0
 11 10  1  0  0  0  0
 12  9  1  0  0  0  0
 13  8  2  0  0  0  0
 14  4  1  0  0  0  0
 10 13  1  0  0  0  0
M  END
> <#>
108

> <PLATE>
LAT002

> <ROW>
D

> <COL>
5

> <COORD>
D05

> <LATID>
LAT002D05

> <Supplier>
Microsource

> <Suplier_CAT#>
01500545

> <Name>
Sulfacetamide

> <Concentration_(mM)>
2.5

> <IC50_(µM)>
1.3

> <Yeast_Active?>
-

> <Pubchem_CID>
5320

> <Description>
Antibacterial

$$$$
