
  -ISIS-  08130814242D

 20 21  0  0  0  0  0  0  0  0999 V2000
    5.1167   -3.8667    0.0000 C   0  0  0  0  0  0  0  0  0  0  0  0
    4.4667   -4.9875    0.0000 C   0  0  0  0  0  0  0  0  0  0  0  0
    4.4667   -4.2375    0.0000 C   0  0  0  0  0  0  0  0  0  0  0  0
    5.1042   -3.1167    0.0000 C   0  0  0  0  0  0  0  0  0  0  0  0
    5.1167   -5.3667    0.0000 C   0  0  0  0  0  0  0  0  0  0  0  0
    5.7542   -2.7375    0.0000 N   0  0  0  0  0  0  0  0  0  0  0  0
    5.7542   -4.2375    0.0000 C   0  0  0  0  0  0  0  0  0  0  0  0
    5.7542   -4.9875    0.0000 C   0  0  0  0  0  0  0  0  0  0  0  0
    6.4042   -3.1167    0.0000 C   0  0  0  0  0  0  0  0  0  0  0  0
    3.8167   -5.3667    0.0000 I   0  0  0  0  0  0  0  0  0  0  0  0
    6.4042   -5.3667    0.0000 I   0  0  0  0  0  0  0  0  0  0  0  0
    3.8167   -3.8667    0.0000 O   0  0  0  0  0  0  0  0  0  0  0  0
    7.7042   -3.8667    0.0000 C   0  0  0  0  0  0  0  0  0  0  0  0
    6.4167   -3.8667    0.0000 C   0  0  0  0  0  0  0  0  0  0  0  0
    7.0542   -2.7375    0.0000 C   0  0  0  0  0  0  0  0  0  0  0  0
    7.7167   -3.1167    0.0000 C   0  0  0  0  0  0  0  0  0  0  0  0
    7.0667   -4.2375    0.0000 C   0  0  0  0  0  0  0  0  0  0  0  0
    8.3542   -4.2375    0.0000 O   0  0  0  0  0  0  0  0  0  0  0  0
    3.1792   -4.2375    0.0000 C   0  0  0  0  0  0  0  0  0  0  0  0
    8.3542   -4.9875    0.0000 C   0  0  0  0  0  0  0  0  0  0  0  0
  2  3  1  0  0  0  0
  3  1  2  0  0  0  0
  4  1  1  0  0  0  0
  5  8  1  0  0  0  0
  6  4  2  0  0  0  0
  7  1  1  0  0  0  0
  8  7  2  0  0  0  0
  9  6  1  0  0  0  0
 10  2  1  0  0  0  0
 11  8  1  0  0  0  0
 12  3  1  0  0  0  0
 13 16  1  0  0  0  0
 14  9  2  0  0  0  0
 15  9  1  0  0  0  0
 16 15  2  0  0  0  0
 17 14  1  0  0  0  0
 18 13  1  0  0  0  0
 19 12  1  0  0  0  0
 20 18  1  0  0  0  0
  2  5  2  0  0  0  0
 17 13  2  0  0  0  0
M  END
> <#>
728

> <PLATE>
LAT010

> <ROW>
H

> <COL>
2

> <COORD>
H02

> <LATID>
LAT010H02

> <Supplier>
Chembridge

> <Suplier_CAT#>
5565147

> <Name>
Novel

> <Sec_Name>
171_G10

> <Concentration_(mM)>
2.5

> <IC50_(µM)>
100

> <Yeast_Active?>
-

> <Pubchem_CID>
2853085

$$$$
