
  -ISIS-  08130814242D

 25 27  0  0  0  0  0  0  0  0999 V2000
    4.6500   -5.6792    0.0000 C   0  0  0  0  0  0  0  0  0  0  0  0
    4.1542   -5.0125    0.0000 N   0  0  0  0  0  0  0  0  0  0  0  0
    4.1667   -6.3500    0.0000 N   0  0  0  0  0  0  0  0  0  0  0  0
    5.4750   -5.6750    0.0000 S   0  0  3  0  0  0  0  0  0  0  0  0
    6.7167   -6.3792    0.0000 C   0  0  0  0  0  0  0  0  0  0  0  0
    5.8917   -6.3875    0.0000 C   0  0  0  0  0  0  0  0  0  0  0  0
    9.5792   -4.2167    0.0000 C   0  0  3  0  0  0  0  0  0  0  0  0
    7.1167   -5.6667    0.0000 C   0  0  0  0  0  0  0  0  0  0  0  0
    3.3750   -5.2750    0.0000 C   0  0  0  0  0  0  0  0  0  0  0  0
    3.3792   -6.1000    0.0000 C   0  0  0  0  0  0  0  0  0  0  0  0
    7.1292   -7.0917    0.0000 N   0  0  0  0  0  0  0  0  0  0  0  0
    7.9417   -5.6542    0.0000 C   0  0  0  0  0  0  0  0  0  0  0  0
    5.8792   -4.9542    0.0000 O   0  0  0  0  0  0  0  0  0  0  0  0
    8.3417   -4.9417    0.0000 O   0  0  0  0  0  0  0  0  0  0  0  0
    9.1667   -4.9292    0.0000 C   0  0  0  0  0  0  0  0  0  0  0  0
   10.4042   -4.2042    0.0000 F   0  0  0  0  0  0  0  0  0  0  0  0
    9.1542   -3.5042    0.0000 F   0  0  0  0  0  0  0  0  0  0  0  0
    9.9875   -3.5000    0.0000 F   0  0  0  0  0  0  0  0  0  0  0  0
    7.9542   -7.0917    0.0000 C   0  0  0  0  0  0  0  0  0  0  0  0
    8.3625   -6.3750    0.0000 C   0  0  0  0  0  0  0  0  0  0  0  0
    6.7000   -4.9542    0.0000 C   0  0  0  0  0  0  0  0  0  0  0  0
    2.6542   -4.8625    0.0000 C   0  0  0  0  0  0  0  0  0  0  0  0
    2.6542   -6.5167    0.0000 C   0  0  0  0  0  0  0  0  0  0  0  0
    1.9417   -6.1042    0.0000 C   0  0  0  0  0  0  0  0  0  0  0  0
    1.9417   -5.2750    0.0000 C   0  0  0  0  0  0  0  0  0  0  0  0
  2  1  2  0  0  0  0
  3  1  1  0  0  0  0
  4  1  1  0  0  0  0
  5  6  1  0  0  0  0
  6  4  1  0  0  0  0
  7 15  1  0  0  0  0
  8  5  1  0  0  0  0
  9  2  1  0  0  0  0
 10  3  1  0  0  0  0
 11  5  2  0  0  0  0
 12  8  2  0  0  0  0
 13  4  2  0  0  0  0
 14 12  1  0  0  0  0
 15 14  1  0  0  0  0
 16  7  1  0  0  0  0
 17  7  1  0  0  0  0
 18  7  1  0  0  0  0
 19 11  1  0  0  0  0
 20 19  2  0  0  0  0
 21  8  1  0  0  0  0
 22  9  2  0  0  0  0
 23 10  2  0  0  0  0
 24 23  1  0  0  0  0
 25 22  1  0  0  0  0
 10  9  1  0  0  0  0
 24 25  2  0  0  0  0
 20 12  1  0  0  0  0
M  END
> <#>
121

> <PLATE>
LAT002

> <ROW>
A

> <COL>
7

> <COORD>
A07

> <LATID>
LAT002A07

> <Supplier>
Microsource

> <Suplier_CAT#>
01503926

> <Name>
Lansoprazole

> <Concentration_(mM)>
2.5

> <IC50_(µM)>
24

> <Yeast_Active?>
-

> <Pubchem_CID>
3883

> <Description>
Antiulcerative

$$$$
