
  -ISIS-  08130814242D

 38 39  0  0  0  0  0  0  0  0999 V2000
    1.0542   -4.7167    0.0000 C   0  0  1  0  0  0  0  0  0  0  0  0
    1.6792   -4.1792    0.0000 C   0  0  0  0  0  0  0  0  0  0  0  0
    2.1042   -6.5167    0.0000 C   0  0  0  0  0  0  0  0  0  0  0  0
   -0.3750   -4.7167    0.0000 C   0  0  0  0  0  0  0  0  0  0  0  0
   -1.0958   -4.3042    0.0000 C   0  0  0  0  0  0  0  0  0  0  0  0
    2.8875   -6.2375    0.0000 C   0  0  1  0  0  0  0  0  0  0  0  0
    0.3375   -4.3042    0.0000 N   0  0  0  0  0  0  0  0  0  0  0  0
    1.3250   -6.2375    0.0000 O   0  0  0  0  0  0  0  0  0  0  0  0
    2.5042   -4.1792    0.0000 O   0  0  0  0  0  0  0  0  0  0  0  0
    3.2750   -5.5167    0.0000 C   0  0  2  0  0  0  0  0  0  0  0  0
   -1.0958   -3.4875    0.0000 C   0  0  0  0  0  0  0  0  0  0  0  0
    0.9125   -5.5292    0.0000 C   0  0  2  0  0  0  0  0  0  0  0  0
    3.1292   -4.7042    0.0000 C   0  0  2  0  0  0  0  0  0  0  0  0
    4.8000   -5.2375    0.0000 C   0  0  0  0  0  0  0  0  0  0  0  0
    4.0875   -5.6500    0.0000 O   0  0  0  0  0  0  0  0  0  0  0  0
    1.3917   -3.4042    0.0000 O   0  0  0  0  0  0  0  0  0  0  0  0
    2.1042   -7.3417    0.0000 O   0  0  0  0  0  0  0  0  0  0  0  0
   -0.3750   -5.5417    0.0000 O   0  0  0  0  0  0  0  0  0  0  0  0
   -1.8083   -3.0750    0.0000 C   0  0  0  0  0  0  0  0  0  0  0  0
   -1.0958   -1.8375    0.0000 C   0  0  0  0  0  0  0  0  0  0  0  0
    4.7917   -4.4125    0.0000 O   0  0  0  0  0  0  0  0  0  0  0  0
   -1.1000   -1.0125    0.0000 O   0  0  0  0  0  0  0  0  0  0  0  0
   -1.8083   -2.2500    0.0000 N   0  0  0  0  0  0  0  0  0  0  0  0
    5.5125   -5.6500    0.0000 C   0  0  0  0  0  0  0  0  0  0  0  0
   -0.3833   -3.0750    0.0000 O   0  0  0  0  0  0  0  0  0  0  0  0
   -1.8000   -4.7292    0.0000 C   0  0  0  0  0  0  0  0  0  0  0  0
    3.3000   -6.9500    0.0000 C   0  0  0  0  0  0  0  0  0  0  0  0
    0.1000   -5.6667    0.0000 C   0  0  0  0  0  0  0  0  0  0  0  0
    3.8417   -4.2917    0.0000 C   0  0  0  0  0  0  0  0  0  0  0  0
   -2.5208   -4.3167    0.0000 C   0  0  0  0  0  0  0  0  0  0  0  0
   -2.5208   -3.4917    0.0000 C   0  0  0  0  0  0  0  0  0  0  0  0
    6.2250   -5.2375    0.0000 C   0  0  3  0  0  0  0  0  0  0  0  0
    4.1167   -6.9500    0.0000 C   0  0  0  0  0  0  0  0  0  0  0  0
    5.3542   -7.6625    0.0000 C   0  0  0  0  0  0  0  0  0  0  0  0
    4.5292   -7.6625    0.0000 C   0  0  0  0  0  0  0  0  0  0  0  0
    6.9375   -5.6500    0.0000 C   0  0  0  0  0  0  0  0  0  0  0  0
    6.2250   -4.4125    0.0000 C   0  0  0  0  0  0  0  0  0  0  0  0
    5.7667   -8.3750    0.0000 C   0  0  0  0  0  0  0  0  0  0  0  0
  2  1  1  0  0  0  0
  3  8  1  0  0  0  0
  4  7  1  0  0  0  0
  5  4  1  0  0  0  0
  6  3  1  0  0  0  0
  1  7  1  6  0  0  0
  8 12  1  0  0  0  0
  9  2  1  0  0  0  0
 10 13  1  0  0  0  0
 11  5  2  0  0  0  0
 12  1  1  0  0  0  0
 13  9  1  0  0  0  0
 14 15  1  0  0  0  0
 10 15  1  6  0  0  0
 16  2  2  0  0  0  0
 17  3  2  0  0  0  0
 18  4  2  0  0  0  0
 19 11  1  0  0  0  0
 20 23  1  0  0  0  0
 21 14  2  0  0  0  0
 22 20  2  0  0  0  0
 23 19  1  0  0  0  0
 24 14  1  0  0  0  0
 25 11  1  0  0  0  0
 26  5  1  0  0  0  0
  6 27  1  1  0  0  0
 12 28  1  6  0  0  0
 13 29  1  1  0  0  0
 30 26  2  0  0  0  0
 31 30  1  0  0  0  0
 32 24  1  0  0  0  0
 33 27  1  0  0  0  0
 34 35  1  0  0  0  0
 35 33  1  0  0  0  0
 36 32  1  0  0  0  0
 37 32  1  0  0  0  0
 38 34  1  0  0  0  0
  6 10  1  0  0  0  0
 31 19  2  0  0  0  0
M  END
> <#>
84

> <PLATE>
LAT002

> <ROW>
D

> <COL>
2

> <COORD>
D02

> <LATID>
LAT002D02

> <Supplier>
Microsource

> <Suplier_CAT#>
1502108

> <Name>
Antimycin A

> <Concentration_(mM)>
2.5

> <IC50_(µM)>
7.3

> <Yeast_Active?>
-

> <Pubchem_CID>
2204

> <Description>
Antifungal, Antiviral, Interferes In Cytochrome Oxidation

> <Source>
Natural Product; ex Streptomyces spp

$$$$
