
  -ISIS-  08130814242D

 13 12  0  0  0  0  0  0  0  0999 V2000
    4.7375   -0.5000    0.0000 Na  0  3  0  0  0  0  0  0  0  0  0  0
    2.3417   -0.7917    0.0000 C   0  0  0  0  0  0  0  0  0  0  0  0
    1.6292   -0.3875    0.0000 C   0  0  3  0  0  0  0  0  0  0  0  0
    3.0542   -0.3792    0.0000 O   0  5  0  0  0  0  0  0  0  0  0  0
    2.3417   -1.6167    0.0000 O   0  0  0  0  0  0  0  0  0  0  0  0
    1.6292    0.4375    0.0000 C   0  0  0  0  0  0  0  0  0  0  0  0
    0.9167   -0.8000    0.0000 C   0  0  0  0  0  0  0  0  0  0  0  0
    0.9125    0.8458    0.0000 C   0  0  0  0  0  0  0  0  0  0  0  0
    2.3417    0.8500    0.0000 C   0  0  0  0  0  0  0  0  0  0  0  0
    0.2042   -0.3917    0.0000 C   0  0  0  0  0  0  0  0  0  0  0  0
    2.3417    1.6750    0.0000 C   0  0  0  0  0  0  0  0  0  0  0  0
    0.9042    1.6708    0.0000 C   0  0  0  0  0  0  0  0  0  0  0  0
    1.6250    2.0875    0.0000 C   0  0  0  0  0  0  0  0  0  0  0  0
  3  2  1  0  0  0  0
  4  2  1  0  0  0  0
  5  2  2  0  0  0  0
  6  3  1  0  0  0  0
  7  3  1  0  0  0  0
  8  6  1  0  0  0  0
  9  6  2  0  0  0  0
 10  7  1  0  0  0  0
 11  9  1  0  0  0  0
 12  8  2  0  0  0  0
 13 12  1  0  0  0  0
 11 13  2  0  0  0  0
M  CHG  2   1   1   4  -1
M  END
> <#>
145

> <PLATE>
LAT002

> <ROW>
A

> <COL>
10

> <COORD>
A10

> <LATID>
LAT002A10

> <Supplier>
Microsource

> <Suplier_CAT#>
01504221

> <Name>
Phenylbutyrate Sodium 

> <Concentration_(mM)>
2.5

> <IC50_(µM)>
6.5

> <Yeast_Active?>
-

> <Pubchem_CID>
7012

> <Description>
Antihyperlipidemic

$$$$
