
  -ISIS-  08130814242D

 27 29  0  0  0  0  0  0  0  0999 V2000
    6.1500   -0.4000    0.0000 N   0  0  3  0  0  0  0  0  0  0  0  0
    5.5000    0.7208    0.0000 C   0  0  0  0  0  0  0  0  0  0  0  0
    5.5042   -0.7667    0.0000 C   0  0  0  0  0  0  0  0  0  0  0  0
    4.8542    0.3458    0.0000 C   0  0  0  0  0  0  0  0  0  0  0  0
    4.8542   -0.4000    0.0000 S   0  0  0  0  0  0  0  0  0  0  0  0
    6.9375   -0.6000    0.0000 N   0  0  0  0  0  0  0  0  0  0  0  0
    7.1542   -1.4000    0.0000 C   0  0  0  0  0  0  0  0  0  0  0  0
    4.1375    0.7500    0.0000 C   0  0  0  0  0  0  0  0  0  0  0  0
    5.5042   -1.5042    0.0000 S   0  0  0  0  0  0  0  0  0  0  0  0
    5.7042    1.5000    0.0000 O   0  0  0  0  0  0  0  0  0  0  0  0
    2.7042   -0.9000    0.0000 C   0  0  0  0  0  0  0  0  0  0  0  0
    3.4167    0.3333    0.0000 C   0  0  0  0  0  0  0  0  0  0  0  0
    2.0000   -0.4875    0.0000 C   0  0  0  0  0  0  0  0  0  0  0  0
    6.5667   -1.9667    0.0000 O   0  0  0  0  0  0  0  0  0  0  0  0
    3.4167   -0.4875    0.0000 C   0  0  0  0  0  0  0  0  0  0  0  0
    7.9500   -1.6000    0.0000 C   0  0  0  0  0  0  0  0  0  0  0  0
    2.0000    0.3333    0.0000 C   0  0  0  0  0  0  0  0  0  0  0  0
    2.7042    0.7500    0.0000 C   0  0  0  0  0  0  0  0  0  0  0  0
    2.7042   -1.7167    0.0000 O   0  0  0  0  0  0  0  0  0  0  0  0
    1.2792   -0.9000    0.0000 O   0  0  0  0  0  0  0  0  0  0  0  0
    8.1542   -2.4000    0.0000 C   0  0  0  0  0  0  0  0  0  0  0  0
    8.5167   -1.0167    0.0000 C   0  0  0  0  0  0  0  0  0  0  0  0
    2.0000   -2.1375    0.0000 C   0  0  0  0  0  0  0  0  0  0  0  0
    2.0000   -2.9542    0.0000 C   0  0  0  0  0  0  0  0  0  0  0  0
    9.3042   -1.2167    0.0000 C   0  0  0  0  0  0  0  0  0  0  0  0
    8.9500   -2.6000    0.0000 C   0  0  0  0  0  0  0  0  0  0  0  0
    9.5292   -2.0167    0.0000 C   0  0  0  0  0  0  0  0  0  0  0  0
  2  1  1  0  0  0  0
  3  1  1  0  0  0  0
  4  2  1  0  0  0  0
  5  3  1  0  0  0  0
  6  1  1  0  0  0  0
  7  6  1  0  0  0  0
  8  4  2  0  0  0  0
  9  3  2  0  0  0  0
 10  2  2  0  0  0  0
 11 15  2  0  0  0  0
 12  8  1  0  0  0  0
 13 17  2  0  0  0  0
 14  7  2  0  0  0  0
 15 12  1  0  0  0  0
 16  7  1  0  0  0  0
 17 18  1  0  0  0  0
 18 12  2  0  0  0  0
 19 11  1  0  0  0  0
 20 13  1  0  0  0  0
 21 16  2  0  0  0  0
 22 16  1  0  0  0  0
 23 19  1  0  0  0  0
 24 23  1  0  0  0  0
 25 22  2  0  0  0  0
 26 21  1  0  0  0  0
 27 25  1  0  0  0  0
  4  5  1  0  0  0  0
 26 27  2  0  0  0  0
 13 11  1  0  0  0  0
M  END
> <#>
780

> <PLATE>
LAT010

> <ROW>
D

> <COL>
9

> <COORD>
D09

> <LATID>
LAT010D09

> <Supplier>
Chembridge

> <Suplier_CAT#>
5621282

> <Name>
Novel

> <Sec_Name>
188_D04

> <Concentration_(mM)>
2.5

> <IC50_(µM)>
22

> <Yeast_Active?>
-

> <Pubchem_CID>
1240276

$$$$
