
  -ISIS-  08130814242D

 19 20  0  0  0  0  0  0  0  0999 V2000
    0.3500    0.9833    0.0000 N   0  0  0  0  0  0  0  0  0  0  0  0
   -0.4458    0.5208    0.0000 C   0  0  0  0  0  0  0  0  0  0  0  0
    1.1375    0.5458    0.0000 C   0  0  0  0  0  0  0  0  0  0  0  0
   -1.2500    0.9833    0.0000 N   0  0  0  0  0  0  0  0  0  0  0  0
   -2.0458    0.5333    0.0000 C   0  0  0  0  0  0  0  0  0  0  0  0
   -0.4333   -0.4000    0.0000 S   0  0  0  0  0  0  0  0  0  0  0  0
    1.1375   -0.3667    0.0000 O   0  0  0  0  0  0  0  0  0  0  0  0
    1.9375    1.0000    0.0000 C   0  0  0  0  0  0  0  0  0  0  0  0
   -2.8458    0.9833    0.0000 C   0  0  0  0  0  0  0  0  0  0  0  0
   -2.8708    1.8958    0.0000 F   0  0  0  0  0  0  0  0  0  0  0  0
   -2.0333   -0.4000    0.0000 C   0  0  0  0  0  0  0  0  0  0  0  0
    1.9375    1.9208    0.0000 C   0  0  0  0  0  0  0  0  0  0  0  0
    2.7500    0.5458    0.0000 C   0  0  0  0  0  0  0  0  0  0  0  0
   -3.6458    0.5125    0.0000 C   0  0  0  0  0  0  0  0  0  0  0  0
   -2.8458   -0.8667    0.0000 C   0  0  0  0  0  0  0  0  0  0  0  0
   -3.6458   -0.4042    0.0000 C   0  0  0  0  0  0  0  0  0  0  0  0
    3.5292    1.0125    0.0000 C   0  0  0  0  0  0  0  0  0  0  0  0
    2.7167    2.3958    0.0000 C   0  0  0  0  0  0  0  0  0  0  0  0
    3.5167    1.9458    0.0000 C   0  0  0  0  0  0  0  0  0  0  0  0
  2  1  1  0  0  0  0
  3  1  1  0  0  0  0
  4  2  1  0  0  0  0
  5  4  1  0  0  0  0
  6  2  2  0  0  0  0
  7  3  2  0  0  0  0
  8  3  1  0  0  0  0
  9  5  2  0  0  0  0
 10  9  1  0  0  0  0
 11  5  1  0  0  0  0
 12  8  1  0  0  0  0
 13  8  2  0  0  0  0
 14  9  1  0  0  0  0
 15 11  2  0  0  0  0
 16 15  1  0  0  0  0
 17 13  1  0  0  0  0
 18 12  2  0  0  0  0
 19 17  2  0  0  0  0
 19 18  1  0  0  0  0
 16 14  2  0  0  0  0
M  END
> <#>
825

> <PLATE>
LAT011

> <ROW>
A

> <COL>
5

> <COORD>
A05

> <LATID>
LAT011A05

> <Supplier>
Chembridge

> <Suplier_CAT#>
5630330

> <Name>
Novel

> <Sec_Name>
191_E11

> <Concentration_(mM)>
2.5

> <IC50_(µM)>
23

> <Yeast_Active?>
-

> <Pubchem_CID>
872764

$$$$
