
  -ISIS-  08130814242D

 26 28  0  0  0  0  0  0  0  0999 V2000
    0.6042   -0.1500    0.0000 S   0  0  3  0  0  0  0  0  0  0  0  0
    1.4042    0.3333    0.0000 N   0  0  3  0  0  0  0  0  0  0  0  0
   -0.1958   -0.6292    0.0000 C   0  0  0  0  0  0  0  0  0  0  0  0
   -2.5500   -0.1500    0.0000 C   0  0  0  0  0  0  0  0  0  0  0  0
   -2.5500    0.7708    0.0000 N   0  0  0  0  0  0  0  0  0  0  0  0
   -1.7500   -0.6292    0.0000 C   0  0  0  0  0  0  0  0  0  0  0  0
   -0.9708   -0.1667    0.0000 C   0  0  0  0  0  0  0  0  0  0  0  0
    0.1500    0.6500    0.0000 O   0  0  0  0  0  0  0  0  0  0  0  0
    1.0875   -0.9500    0.0000 O   0  0  0  0  0  0  0  0  0  0  0  0
   -3.3500   -0.6042    0.0000 O   0  0  0  0  0  0  0  0  0  0  0  0
   -3.3333    1.2333    0.0000 C   0  0  0  0  0  0  0  0  0  0  0  0
   -4.8958    2.1333    0.0000 C   0  0  0  0  0  0  0  0  0  0  0  0
   -3.3333    2.1333    0.0000 C   0  0  0  0  0  0  0  0  0  0  0  0
   -4.1125    0.7708    0.0000 C   0  0  0  0  0  0  0  0  0  0  0  0
   -4.8958    1.2333    0.0000 C   0  0  0  0  0  0  0  0  0  0  0  0
   -4.1125    2.5958    0.0000 C   0  0  0  0  0  0  0  0  0  0  0  0
    2.2042   -0.1500    0.0000 C   0  0  0  0  0  0  0  0  0  0  0  0
    1.4042    1.2500    0.0000 C   0  0  0  0  0  0  0  0  0  0  0  0
   -0.1958   -1.5292    0.0000 C   0  0  0  0  0  0  0  0  0  0  0  0
   -5.6958    2.6125    0.0000 O   0  0  0  0  0  0  0  0  0  0  0  0
   -1.7500   -1.5292    0.0000 C   0  0  0  0  0  0  0  0  0  0  0  0
   -0.9708   -1.9875    0.0000 C   0  0  0  0  0  0  0  0  0  0  0  0
   -5.6958    3.5333    0.0000 C   0  0  0  0  0  0  0  0  0  0  0  0
    2.1875    1.6958    0.0000 C   0  0  0  0  0  0  0  0  0  0  0  0
    3.0042    0.3333    0.0000 C   0  0  0  0  0  0  0  0  0  0  0  0
    3.0042    1.2333    0.0000 C   0  0  0  0  0  0  0  0  0  0  0  0
  2  1  1  0  0  0  0
  3  1  1  0  0  0  0
  4  6  1  0  0  0  0
  5  4  1  0  0  0  0
  6  7  2  0  0  0  0
  7  3  1  0  0  0  0
  8  1  2  0  0  0  0
  9  1  2  0  0  0  0
 10  4  2  0  0  0  0
 11  5  1  0  0  0  0
 12 15  1  0  0  0  0
 13 11  2  0  0  0  0
 14 11  1  0  0  0  0
 15 14  2  0  0  0  0
 16 13  1  0  0  0  0
 17  2  1  0  0  0  0
 18  2  1  0  0  0  0
 19  3  2  0  0  0  0
 20 12  1  0  0  0  0
 21 22  2  0  0  0  0
 22 19  1  0  0  0  0
 23 20  1  0  0  0  0
 24 18  1  0  0  0  0
 25 17  1  0  0  0  0
 26 24  1  0  0  0  0
  6 21  1  0  0  0  0
 25 26  1  0  0  0  0
 12 16  2  0  0  0  0
M  END
> <#>
945

> <PLATE>
LAT012

> <ROW>
A

> <COL>
10

> <COORD>
A10

> <LATID>
LAT012A10

> <Supplier>
Chembridge

> <Suplier_CAT#>
5728414

> <Name>
Novel

> <Sec_Name>
231_G07

> <Concentration_(mM)>
2.5

> <IC50_(µM)>
24

> <Yeast_Active?>
-

> <Pubchem_CID>
1077181

$$$$
