
  -ISIS-  08130814242D

 19 21  0  0  0  0  0  0  0  0999 V2000
   -2.9833    0.8625    0.0000 N   0  0  0  0  0  0  0  0  0  0  0  0
   -2.9833   -0.7000    0.0000 N   0  0  3  0  0  0  0  0  0  0  0  0
   -2.4458    0.0833    0.0000 C   0  0  0  0  0  0  0  0  0  0  0  0
   -3.9208   -0.4042    0.0000 C   0  0  0  0  0  0  0  0  0  0  0  0
   -3.9208    0.5625    0.0000 C   0  0  0  0  0  0  0  0  0  0  0  0
   -2.6500   -1.6000    0.0000 C   0  0  0  0  0  0  0  0  0  0  0  0
   -1.4833    0.0833    0.0000 C   0  0  0  0  0  0  0  0  0  0  0  0
   -1.0833   -1.0167    0.0000 O   0  0  0  0  0  0  0  0  0  0  0  0
   -0.1333   -1.1875    0.0000 C   0  0  0  0  0  0  0  0  0  0  0  0
   -1.7125   -1.7542    0.0000 C   0  0  0  0  0  0  0  0  0  0  0  0
   -4.7708   -0.8875    0.0000 C   0  0  0  0  0  0  0  0  0  0  0  0
   -4.7708    1.0500    0.0000 C   0  0  0  0  0  0  0  0  0  0  0  0
    0.5042   -0.4542    0.0000 C   0  0  0  0  0  0  0  0  0  0  0  0
    0.1875   -2.1000    0.0000 C   0  0  0  0  0  0  0  0  0  0  0  0
   -5.5958   -0.4042    0.0000 C   0  0  0  0  0  0  0  0  0  0  0  0
   -5.5958    0.5625    0.0000 C   0  0  0  0  0  0  0  0  0  0  0  0
    1.4542   -0.6375    0.0000 C   0  0  0  0  0  0  0  0  0  0  0  0
    1.1500   -2.2792    0.0000 C   0  0  0  0  0  0  0  0  0  0  0  0
    1.7792   -1.5500    0.0000 C   0  0  0  0  0  0  0  0  0  0  0  0
  2  3  1  0  0  0  0
  3  1  2  0  0  0  0
  4  5  2  0  0  0  0
  5  1  1  0  0  0  0
  6  2  1  0  0  0  0
  7  3  1  0  0  0  0
  8 10  1  0  0  0  0
  9  8  1  0  0  0  0
 10  6  1  0  0  0  0
 11  4  1  0  0  0  0
 12  5  1  0  0  0  0
 13  9  1  0  0  0  0
 14  9  2  0  0  0  0
 15 16  1  0  0  0  0
 16 12  2  0  0  0  0
 17 13  2  0  0  0  0
 18 14  1  0  0  0  0
 19 18  2  0  0  0  0
  2  4  1  0  0  0  0
 11 15  2  0  0  0  0
 17 19  1  0  0  0  0
M  END
> <#>
683

> <PLATE>
LAT009

> <ROW>
C

> <COL>
7

> <COORD>
C07

> <LATID>
LAT009C07

> <Supplier>
Chembridge

> <Suplier_CAT#>
5550112

> <Name>
Novel

> <Sec_Name>
164_C02

> <Concentration_(mM)>
2.5

> <IC50_(µM)>
48

> <Yeast_Active?>
-

> <Pubchem_CID>
2851825

$$$$
