
  -ISIS-  08130814242D

 26 28  0  0  0  0  0  0  0  0999 V2000
   -3.1833   -0.1500    0.0000 C   0  0  0  0  0  0  0  0  0  0  0  0
   -3.6958    0.1625    0.0000 C   0  0  0  0  0  0  0  0  0  0  0  0
    0.5042    2.0208    0.0000 C   0  0  0  0  0  0  0  0  0  0  0  0
    1.0500    2.3333    0.0000 C   0  0  0  0  0  0  0  0  0  0  0  0
   -1.6000    0.1708    0.0000 N   0  0  0  0  0  0  0  0  0  0  0  0
   -3.1833   -0.7667    0.0000 C   0  0  0  0  0  0  0  0  0  0  0  0
   -2.6625    0.1500    0.0000 C   0  0  0  0  0  0  0  0  0  0  0  0
   -1.6000    0.7958    0.0000 C   0  0  0  0  0  0  0  0  0  0  0  0
   -3.6708    0.7500    0.0000 O   0  0  0  0  0  0  0  0  0  0  0  0
   -2.1458   -0.1500    0.0000 C   0  0  0  0  0  0  0  0  0  0  0  0
   -0.0333    1.7000    0.0000 C   0  0  0  0  0  0  0  0  0  0  0  0
   -2.6625   -1.0667    0.0000 C   0  0  0  0  0  0  0  0  0  0  0  0
    1.5792    2.6458    0.0000 C   0  0  0  0  0  0  0  0  0  0  0  0
   -1.0708    1.0833    0.0000 C   0  0  0  0  0  0  0  0  0  0  0  0
   -4.2208   -0.1167    0.0000 O   0  0  0  0  0  0  0  0  0  0  0  0
   -2.1458   -0.7667    0.0000 C   0  0  0  0  0  0  0  0  0  0  0  0
   -3.6958   -1.0792    0.0000 O   0  0  0  0  0  0  0  0  0  0  0  0
   -0.5500    1.9958    0.0000 C   0  0  0  0  0  0  0  0  0  0  0  0
   -0.0333    1.0833    0.0000 C   0  0  0  0  0  0  0  0  0  0  0  0
   -1.0708    1.7000    0.0000 C   0  0  0  0  0  0  0  0  0  0  0  0
   -0.5500    0.7958    0.0000 C   0  0  0  0  0  0  0  0  0  0  0  0
    1.5667    3.2708    0.0000 C   0  0  0  0  0  0  0  0  0  0  0  0
    2.1167    2.3333    0.0000 C   0  0  0  0  0  0  0  0  0  0  0  0
    2.6375    2.6458    0.0000 C   0  0  0  0  0  0  0  0  0  0  0  0
    2.0875    3.5708    0.0000 C   0  0  0  0  0  0  0  0  0  0  0  0
    2.6375    3.2708    0.0000 C   0  0  0  0  0  0  0  0  0  0  0  0
  2  1  1  0  0  0  0
  3 11  1  0  0  0  0
  4  3  3  0  0  0  0
  5 10  1  0  0  0  0
  6  1  1  0  0  0  0
  7  1  2  0  0  0  0
  8  5  2  0  0  0  0
  9  2  2  0  0  0  0
 10  7  1  0  0  0  0
 11 19  2  0  0  0  0
 12  6  2  0  0  0  0
 13  4  1  0  0  0  0
 14  8  1  0  0  0  0
 15  2  1  0  0  0  0
 16 10  2  0  0  0  0
 17  6  1  0  0  0  0
 18 20  2  0  0  0  0
 19 21  1  0  0  0  0
 20 14  1  0  0  0  0
 21 14  2  0  0  0  0
 22 13  2  0  0  0  0
 23 13  1  0  0  0  0
 24 23  2  0  0  0  0
 25 22  1  0  0  0  0
 26 24  1  0  0  0  0
 16 12  1  0  0  0  0
 18 11  1  0  0  0  0
 25 26  2  0  0  0  0
M  END
> <#>
567

> <PLATE>
LAT008

> <ROW>
G

> <COL>
2

> <COORD>
G02

> <LATID>
LAT008G02

> <Supplier>
Chembridge

> <Suplier_CAT#>
5475920

> <Name>
Novel

> <Sec_Name>
138_A04

> <Concentration_(mM)>
2.5

> <IC50_(µM)>
28

> <Yeast_Active?>
-

> <Pubchem_CID>
1674901

$$$$
