
  -ISIS-  08130814242D

 23 26  0  0  0  0  0  0  0  0999 V2000
   -3.0000    1.1000    0.0000 C   0  0  0  0  0  0  0  0  0  0  0  0
   -3.1833    1.6458    0.0000 N   0  0  3  0  0  0  0  0  0  0  0  0
   -2.4208    1.1000    0.0000 N   0  0  3  0  0  0  0  0  0  0  0  0
   -3.4625    0.7458    0.0000 N   0  0  0  0  0  0  0  0  0  0  0  0
   -2.2458    1.6458    0.0000 C   0  0  0  0  0  0  0  0  0  0  0  0
   -2.7000    1.9833    0.0000 C   0  0  0  0  0  0  0  0  0  0  0  0
   -3.7625    1.6458    0.0000 C   0  0  0  0  0  0  0  0  0  0  0  0
   -3.9458    1.0833    0.0000 C   0  0  0  0  0  0  0  0  0  0  0  0
   -1.6958    1.8125    0.0000 C   0  0  0  0  0  0  0  0  0  0  0  0
   -2.0625    0.6208    0.0000 C   0  0  0  0  0  0  0  0  0  0  0  0
   -1.2458    1.4333    0.0000 C   0  0  0  0  0  0  0  0  0  0  0  0
   -1.5958    2.3708    0.0000 C   0  0  0  0  0  0  0  0  0  0  0  0
   -0.6000    2.1833    0.0000 C   0  0  0  0  0  0  0  0  0  0  0  0
   -1.0333    2.5500    0.0000 C   0  0  0  0  0  0  0  0  0  0  0  0
   -0.7125    1.6208    0.0000 C   0  0  0  0  0  0  0  0  0  0  0  0
   -0.0625    2.3708    0.0000 Cl  0  0  0  0  0  0  0  0  0  0  0  0
   -1.4833    0.6833    0.0000 C   0  0  0  0  0  0  0  0  0  0  0  0
   -4.1458    2.0833    0.0000 C   0  0  0  0  0  0  0  0  0  0  0  0
   -4.5000    0.9625    0.0000 C   0  0  0  0  0  0  0  0  0  0  0  0
   -0.5625    0.2458    0.0000 O   0  0  0  0  0  0  0  0  0  0  0  0
   -1.1458    0.1833    0.0000 C   0  0  0  0  0  0  0  0  0  0  0  0
   -4.7083    1.9625    0.0000 C   0  0  0  0  0  0  0  0  0  0  0  0
   -4.9083    1.3833    0.0000 C   0  0  0  0  0  0  0  0  0  0  0  0
  2  1  1  0  0  0  0
  3  1  1  0  0  0  0
  4  1  2  0  0  0  0
  5  3  1  0  0  0  0
  6  2  1  0  0  0  0
  7  2  1  0  0  0  0
  8  4  1  0  0  0  0
  9  5  1  0  0  0  0
 10  3  1  0  0  0  0
 11  9  2  0  0  0  0
 12  9  1  0  0  0  0
 13 14  1  0  0  0  0
 14 12  2  0  0  0  0
 15 11  1  0  0  0  0
 16 13  1  0  0  0  0
 17 10  1  0  0  0  0
 18  7  1  0  0  0  0
 19  8  1  0  0  0  0
 20 21  1  0  0  0  0
 21 17  1  0  0  0  0
 22 18  2  0  0  0  0
 23 19  2  0  0  0  0
  8  7  2  0  0  0  0
  5  6  2  0  0  0  0
 23 22  1  0  0  0  0
 15 13  2  0  0  0  0
M  END
> <#>
1022

> <PLATE>
LAT013

> <ROW>
F

> <COL>
9

> <COORD>
F09

> <LATID>
LAT013F09

> <Supplier>
Chembridge

> <Suplier_CAT#>
5785640

> <Name>
Novel

> <Sec_Name>
247_A09

> <Concentration_(mM)>
2.5

> <IC50_(µM)>
53

> <Yeast_Active?>
-

> <Pubchem_CID>
NULL

$$$$
