
  -ISIS-  08130814242D

 22 23  0  0  0  0  0  0  0  0999 V2000
   -0.4708    1.3708    0.0000 S   0  0  3  0  0  0  0  0  0  0  0  0
   -2.9000    0.9000    0.0000 C   0  0  0  0  0  0  0  0  0  0  0  0
   -1.2833    0.9000    0.0000 C   0  0  0  0  0  0  0  0  0  0  0  0
   -2.0958    1.3708    0.0000 C   0  0  0  0  0  0  0  0  0  0  0  0
    0.3375    1.8458    0.0000 N   0  0  0  0  0  0  0  0  0  0  0  0
   -3.7125    1.3708    0.0000 C   0  0  0  0  0  0  0  0  0  0  0  0
    0.0000    0.5625    0.0000 O   0  0  0  0  0  0  0  0  0  0  0  0
   -0.9458    2.1833    0.0000 O   0  0  0  0  0  0  0  0  0  0  0  0
   -2.9000   -0.0292    0.0000 C   0  0  0  0  0  0  0  0  0  0  0  0
   -3.7125    2.3125    0.0000 O   0  0  0  0  0  0  0  0  0  0  0  0
   -1.2833   -0.0292    0.0000 C   0  0  0  0  0  0  0  0  0  0  0  0
   -2.0958   -0.5042    0.0000 C   0  0  0  0  0  0  0  0  0  0  0  0
    1.2542    1.8458    0.0000 C   0  0  0  0  0  0  0  0  0  0  0  0
   -4.5333    0.9125    0.0000 O   0  0  0  0  0  0  0  0  0  0  0  0
   -3.7125   -0.5042    0.0000 Cl  0  0  0  0  0  0  0  0  0  0  0  0
    3.1500    1.8500    0.0000 C   0  0  0  0  0  0  0  0  0  0  0  0
    4.0792    1.8458    0.0000 Br  0  0  0  0  0  0  0  0  0  0  0  0
    1.7292    2.6625    0.0000 C   0  0  0  0  0  0  0  0  0  0  0  0
    1.7500    1.0458    0.0000 C   0  0  0  0  0  0  0  0  0  0  0  0
    2.6667    2.6708    0.0000 C   0  0  0  0  0  0  0  0  0  0  0  0
    2.6792    1.0458    0.0000 C   0  0  0  0  0  0  0  0  0  0  0  0
   -4.5333   -0.0167    0.0000 C   0  0  0  0  0  0  0  0  0  0  0  0
  2  4  2  0  0  0  0
  3  1  1  0  0  0  0
  4  3  1  0  0  0  0
  5  1  1  0  0  0  0
  6  2  1  0  0  0  0
  7  1  2  0  0  0  0
  8  1  2  0  0  0  0
  9 12  2  0  0  0  0
 10  6  2  0  0  0  0
 11  3  2  0  0  0  0
 12 11  1  0  0  0  0
 13  5  1  0  0  0  0
 14  6  1  0  0  0  0
 15  9  1  0  0  0  0
 16 21  1  0  0  0  0
 17 16  1  0  0  0  0
 18 13  2  0  0  0  0
 19 13  1  0  0  0  0
 20 18  1  0  0  0  0
 21 19  2  0  0  0  0
 22 14  1  0  0  0  0
 20 16  2  0  0  0  0
  2  9  1  0  0  0  0
M  END
> <#>
699

> <PLATE>
LAT009

> <ROW>
C

> <COL>
9

> <COORD>
C09

> <LATID>
LAT009C09

> <Supplier>
Chembridge

> <Suplier_CAT#>
5558441

> <Name>
Novel

> <Sec_Name>
169_D03

> <Concentration_(mM)>
2.5

> <IC50_(µM)>
68

> <Yeast_Active?>
-

> <Pubchem_CID>
1368805

$$$$
