
  -ISIS-  08130814242D

 18 20  0  0  0  0  0  0  0  0999 V2000
    3.4656    1.4579    0.0000 C   0  0  0  0  0  0  0  0  0  0  0  0
    3.4595    2.7079    0.0000 O   0  0  0  0  0  0  0  0  0  0  0  0
    4.5512    0.8383    0.0000 C   0  0  0  0  0  0  0  0  0  0  0  0
    4.5574   -0.4117    0.0000 C   0  0  0  0  0  0  0  0  0  0  0  0
    3.4780   -1.0420    0.0000 C   0  0  0  0  0  0  0  0  0  0  0  0
    3.4842   -2.2920    0.0000 O   0  0  0  0  0  0  0  0  0  0  0  0
    2.3924   -0.4224    0.0000 C   0  0  0  0  0  0  0  0  0  0  0  0
    1.3129   -1.0527    0.0000 C   0  0  0  0  0  0  0  0  0  0  0  0
    1.3191   -2.3027    0.0000 O   0  0  0  0  0  0  0  0  0  0  0  0
    0.2273   -0.4331    0.0000 C   0  0  0  0  0  0  0  0  0  0  0  0
   -0.8521   -1.0634    0.0000 C   0  0  0  0  0  0  0  0  0  0  0  0
   -1.9377   -0.4438    0.0000 C   0  0  0  0  0  0  0  0  0  0  0  0
   -1.9439    0.8062    0.0000 C   0  0  0  0  0  0  0  0  0  0  0  0
   -0.8644    1.4366    0.0000 C   0  0  0  0  0  0  0  0  0  0  0  0
    0.2212    0.8169    0.0000 C   0  0  0  0  0  0  0  0  0  0  0  0
    1.3006    1.4472    0.0000 C   0  0  0  0  0  0  0  0  0  0  0  0
    1.2944    2.6972    0.0000 O   0  0  0  0  0  0  0  0  0  0  0  0
    2.3862    0.8276    0.0000 C   0  0  0  0  0  0  0  0  0  0  0  0
  1  2  1  0  0  0  0
  1  3  1  0  0  0  0
  3  4  2  0  0  0  0
  4  5  1  0  0  0  0
  5  6  1  0  0  0  0
  5  7  2  0  0  0  0
  7  8  1  0  0  0  0
  8  9  2  0  0  0  0
  8 10  1  0  0  0  0
 10 11  1  0  0  0  0
 11 12  2  0  0  0  0
 12 13  1  0  0  0  0
 13 14  2  0  0  0  0
 14 15  1  0  0  0  0
 10 15  2  0  0  0  0
 15 16  1  0  0  0  0
 16 17  2  0  0  0  0
 16 18  1  0  0  0  0
  7 18  1  0  0  0  0
  1 18  2  0  0  0  0
M  END
> <#>
346

> <PLATE>
LAT005

> <ROW>
B

> <COL>
5

> <COORD>
B05

> <LATID>
LAT005B05

> <Supplier>
Aldrich

> <Suplier_CAT#>
Q90-6

> <Name>
Quinizarin

> <Concentration_(mM)>
2.5

> <IC50_(µM)>
inactive

> <Yeast_Active?>
-

> <Pubchem_CID>
6688

$$$$
