
  -ISIS-  08130814242D

 20 21  0  0  0  0  0  0  0  0999 V2000
    0.0292   -0.9792    0.0000 S   0  0  3  0  0  0  0  0  0  0  0  0
    1.3292   -0.9667    0.0000 N   0  0  3  0  0  0  0  0  0  0  0  0
    1.9542    0.1625    0.0000 C   0  0  0  0  0  0  0  0  0  0  0  0
   -1.2833   -0.9792    0.0000 C   0  0  0  0  0  0  0  0  0  0  0  0
    0.0167    0.3208    0.0000 O   0  0  0  0  0  0  0  0  0  0  0  0
    0.0500   -2.2875    0.0000 O   0  0  0  0  0  0  0  0  0  0  0  0
    3.2792    0.1625    0.0000 C   0  0  0  0  0  0  0  0  0  0  0  0
   -1.9333    0.1125    0.0000 C   0  0  0  0  0  0  0  0  0  0  0  0
   -1.9208   -2.1375    0.0000 C   0  0  0  0  0  0  0  0  0  0  0  0
   -3.8708   -1.0167    0.0000 C   0  0  0  0  0  0  0  0  0  0  0  0
    1.9792   -2.0792    0.0000 C   0  0  0  0  0  0  0  0  0  0  0  0
   -3.2500    0.1125    0.0000 C   0  0  0  0  0  0  0  0  0  0  0  0
   -3.2000   -2.1375    0.0000 C   0  0  0  0  0  0  0  0  0  0  0  0
   -5.1625   -1.0542    0.0000 Cl  0  0  0  0  0  0  0  0  0  0  0  0
    3.9500   -0.9375    0.0000 O   0  0  0  0  0  0  0  0  0  0  0  0
    1.3000    1.2833    0.0000 C   0  0  0  0  0  0  0  0  0  0  0  0
    3.9042    1.3208    0.0000 C   0  0  0  0  0  0  0  0  0  0  0  0
    5.2375   -0.9167    0.0000 C   0  0  0  0  0  0  0  0  0  0  0  0
    1.9375    2.4333    0.0000 C   0  0  0  0  0  0  0  0  0  0  0  0
    3.2292    2.4458    0.0000 C   0  0  0  0  0  0  0  0  0  0  0  0
  2  1  1  0  0  0  0
  3  2  1  0  0  0  0
  4  1  1  0  0  0  0
  5  1  2  0  0  0  0
  6  1  2  0  0  0  0
  7  3  1  0  0  0  0
  8  4  1  0  0  0  0
  9  4  2  0  0  0  0
 10 13  2  0  0  0  0
 11  2  1  0  0  0  0
 12  8  2  0  0  0  0
 13  9  1  0  0  0  0
 14 10  1  0  0  0  0
 15  7  1  0  0  0  0
 16  3  2  0  0  0  0
 17  7  2  0  0  0  0
 18 15  1  0  0  0  0
 19 16  1  0  0  0  0
 20 19  2  0  0  0  0
 12 10  1  0  0  0  0
 17 20  1  0  0  0  0
M  END
> <#>
775

> <PLATE>
LAT010

> <ROW>
G

> <COL>
8

> <COORD>
G08

> <LATID>
LAT010G08

> <Supplier>
Chembridge

> <Suplier_CAT#>
5617132

> <Name>
Novel

> <Sec_Name>
185_G11

> <Concentration_(mM)>
2.5

> <IC50_(µM)>
28

> <Yeast_Active?>
-

> <Pubchem_CID>
1352011

$$$$
