
  -ISIS-  08130814242D

 10 10  0  0  0  0  0  0  0  0999 V2000
    4.1417   -5.8017    0.0000 C   0  0  0  0  0  0  0  0  0  0  0  0
    5.3917   -5.8017    0.0000 C   0  0  0  0  0  0  0  0  0  0  0  0
    6.0167   -4.7191    0.0000 C   0  0  0  0  0  0  0  0  0  0  0  0
    7.2667   -4.7191    0.0000 C   0  0  0  0  0  0  0  0  0  0  0  0
    7.8917   -5.8017    0.0000 C   0  0  0  0  0  0  0  0  0  0  0  0
    7.2667   -6.8842    0.0000 C   0  0  0  0  0  0  0  0  0  0  0  0
    6.0167   -6.8842    0.0000 C   0  0  0  0  0  0  0  0  0  0  0  0
    3.5167   -4.7191    0.0000 O   0  0  0  0  0  0  0  0  0  0  0  0
    3.5167   -6.8842    0.0000 O   0  0  0  0  0  0  0  0  0  0  0  0
    7.8917   -3.6366    0.0000 O   0  0  0  0  0  0  0  0  0  0  0  0
  1  2  1  0  0  0  0
  2  3  1  0  0  0  0
  3  4  2  0  0  0  0
  4  5  1  0  0  0  0
  5  6  2  0  0  0  0
  6  7  1  0  0  0  0
  2  7  2  0  0  0  0
  1  8  2  0  0  0  0
  1  9  1  0  0  0  0
  4 10  1  0  0  0  0
M  END
> <#>
354

> <PLATE>
LAT005

> <ROW>
B

> <COL>
6

> <COORD>
B06

> <LATID>
LAT005B06

> <Supplier>
Aldrich

> <Suplier_CAT#>
H20008

> <Name>
3-Hydroxybenzoic Acid

> <Concentration_(mM)>
2.5

> <IC50_(µM)>
>100

> <Yeast_Active?>
-

> <Pubchem_CID>
7420

$$$$
