
  -ISIS-  08130814242D

 25 28  0  0  0  0  0  0  0  0999 V2000
   -0.5625    0.8833    0.0000 C   0  0  0  0  0  0  0  0  0  0  0  0
   -0.9625    1.4458    0.0000 N   0  0  0  0  0  0  0  0  0  0  0  0
   -0.9625    0.3208    0.0000 N   0  0  3  0  0  0  0  0  0  0  0  0
    0.1375    0.9000    0.0000 C   0  0  3  0  0  0  0  0  0  0  0  0
   -1.6000    0.5208    0.0000 C   0  0  0  0  0  0  0  0  0  0  0  0
   -1.6000    1.2208    0.0000 C   0  0  0  0  0  0  0  0  0  0  0  0
    0.1375    0.2000    0.0000 C   0  0  0  0  0  0  0  0  0  0  0  0
    0.8167    0.9000    0.0000 C   0  0  0  0  0  0  0  0  0  0  0  0
    0.1167    1.5833    0.0000 O   0  0  0  0  0  0  0  0  0  0  0  0
   -0.7208   -0.3542    0.0000 C   0  0  0  0  0  0  0  0  0  0  0  0
   -2.2000    0.1833    0.0000 C   0  0  0  0  0  0  0  0  0  0  0  0
   -2.2000    1.5625    0.0000 C   0  0  0  0  0  0  0  0  0  0  0  0
   -0.4625   -0.1375    0.0000 C   0  0  0  0  0  0  0  0  0  0  0  0
    1.1542    0.3000    0.0000 C   0  0  0  0  0  0  0  0  0  0  0  0
    1.1542    1.5000    0.0000 C   0  0  0  0  0  0  0  0  0  0  0  0
    0.7375   -0.1375    0.0000 C   0  0  0  0  0  0  0  0  0  0  0  0
   -1.3708   -1.1875    0.0000 C   0  0  0  0  0  0  0  0  0  0  0  0
   -2.8000    0.5208    0.0000 C   0  0  0  0  0  0  0  0  0  0  0  0
   -2.8000    1.2208    0.0000 C   0  0  0  0  0  0  0  0  0  0  0  0
    1.8375    0.3000    0.0000 C   0  0  0  0  0  0  0  0  0  0  0  0
    1.8375    1.5208    0.0000 C   0  0  0  0  0  0  0  0  0  0  0  0
    0.7542   -0.8167    0.0000 C   0  0  0  0  0  0  0  0  0  0  0  0
   -0.4625   -0.8167    0.0000 C   0  0  0  0  0  0  0  0  0  0  0  0
    2.1792    0.9000    0.0000 C   0  0  0  0  0  0  0  0  0  0  0  0
    0.1375   -1.1542    0.0000 C   0  0  0  0  0  0  0  0  0  0  0  0
  2  1  2  0  0  0  0
  3  1  1  0  0  0  0
  4  1  1  0  0  0  0
  5  3  1  0  0  0  0
  6  2  1  0  0  0  0
  7  4  1  0  0  0  0
  8  4  1  0  0  0  0
  9  4  1  0  0  0  0
 10  3  1  0  0  0  0
 11  5  1  0  0  0  0
 12  6  1  0  0  0  0
 13  7  1  0  0  0  0
 14  8  1  0  0  0  0
 15  8  2  0  0  0  0
 16  7  2  0  0  0  0
 17 10  1  0  0  0  0
 18 11  2  0  0  0  0
 19 12  2  0  0  0  0
 20 14  2  0  0  0  0
 21 15  1  0  0  0  0
 22 16  1  0  0  0  0
 23 13  2  0  0  0  0
 24 21  2  0  0  0  0
 25 22  2  0  0  0  0
  5  6  2  0  0  0  0
 18 19  1  0  0  0  0
 20 24  1  0  0  0  0
 23 25  1  0  0  0  0
M  END
> <#>
731

> <PLATE>
LAT010

> <ROW>
C

> <COL>
3

> <COORD>
C03

> <LATID>
LAT010C03

> <Supplier>
Chembridge

> <Suplier_CAT#>
5566442

> <Name>
Novel

> <Sec_Name>
173_G09

> <Concentration_(mM)>
2.5

> <IC50_(µM)>
30

> <Yeast_Active?>
-

> <Pubchem_CID>
2853213

$$$$
