
  -ISIS-  08130814242D

 26 29  0  0  0  0  0  0  0  0999 V2000
   -2.3007   -0.8857    0.0000 C   0  0  0  0  0  0  0  0  0  0  0  0
   -3.3833   -1.5107    0.0000 C   0  0  0  0  0  0  0  0  0  0  0  0
   -3.3833   -2.7607    0.0000 C   0  0  0  0  0  0  0  0  0  0  0  0
   -4.4658   -3.3857    0.0000 O   0  0  0  0  0  0  0  0  0  0  0  0
   -2.3007   -3.3857    0.0000 C   0  0  0  0  0  0  0  0  0  0  0  0
   -1.2182   -2.7607    0.0000 C   0  0  0  0  0  0  0  0  0  0  0  0
   -0.1357   -3.3857    0.0000 C   0  0  0  0  0  0  0  0  0  0  0  0
    0.9469   -2.7607    0.0000 C   0  0  0  0  0  0  0  0  0  0  0  0
    0.9469   -1.5107    0.0000 C   0  0  1  0  0  0  0  0  0  0  0  0
    2.0294   -0.8857    0.0000 C   0  0  2  0  0  0  0  0  0  0  0  0
    3.2182   -1.2720    0.0000 C   0  0  0  0  0  0  0  0  0  0  0  0
    3.9529   -0.2607    0.0000 C   0  0  0  0  0  0  0  0  0  0  0  0
    3.2182    0.7505    0.0000 C   0  0  2  0  0  0  0  0  0  0  0  0
    3.6045    1.9394    0.0000 C   0  0  0  0  0  0  0  0  0  0  0  0
    2.7206    2.8232    0.0000 O   0  0  0  0  0  0  0  0  0  0  0  0
    4.8119    2.2629    0.0000 C   0  0  0  0  0  0  0  0  0  0  0  0
    2.0294    0.3643    0.0000 C   0  0  2  0  0  0  0  0  0  0  0  0
    2.0294    1.6143    0.0000 C   0  0  0  0  0  0  0  0  0  0  0  0
    0.9469    0.9893    0.0000 C   0  0  0  0  0  0  0  0  0  0  0  0
   -0.1357    0.3643    0.0000 C   0  0  0  0  0  0  0  0  0  0  0  0
   -0.1357   -0.8857    0.0000 C   0  0  2  0  0  0  0  0  0  0  0  0
   -1.2182   -1.5107    0.0000 C   0  0  1  0  0  0  0  0  0  0  0  0
   -1.2182   -0.2607    0.0000 C   0  0  0  0  0  0  0  0  0  0  0  0
   -0.1357   -2.1357    0.0000 H   0  0  0  0  0  0  0  0  0  0  0  0
    0.9469   -0.2607    0.0000 H   0  0  0  0  0  0  0  0  0  0  0  0
    2.0294   -2.1357    0.0000 H   0  0  0  0  0  0  0  0  0  0  0  0
  1  2  1  0  0  0  0
  2  3  1  0  0  0  0
  3  4  2  0  0  0  0
  3  5  1  0  0  0  0
  5  6  2  0  0  0  0
  6  7  1  0  0  0  0
  7  8  1  0  0  0  0
  8  9  1  0  0  0  0
  9 10  1  0  0  0  0
 10 11  1  0  0  0  0
 11 12  1  0  0  0  0
 12 13  1  0  0  0  0
 13 14  1  1  0  0  0
 14 15  2  0  0  0  0
 14 16  1  0  0  0  0
 13 17  1  0  0  0  0
 10 17  1  0  0  0  0
 17 18  1  1  0  0  0
 17 19  1  0  0  0  0
 19 20  1  0  0  0  0
 20 21  1  0  0  0  0
  9 21  1  0  0  0  0
 21 22  1  0  0  0  0
  1 22  1  0  0  0  0
  6 22  1  0  0  0  0
 22 23  1  1  0  0  0
 21 24  1  6  0  0  0
  9 25  1  1  0  0  0
 10 26  1  6  0  0  0
M  END
> <#>
390

> <PLATE>
LAT005

> <ROW>
F

> <COL>
10

> <COORD>
F10

> <LATID>
LAT005F10

> <Supplier>
Sigma

> <Suplier_CAT#>
P8783

> <Name>
Progesterone

> <Concentration_(mM)>
2.5

> <IC50_(µM)>
59

> <Yeast_Active?>
-

> <Pubchem_CID>
4920

$$$$
