
  -ISIS-  08130814242D

 25 27  0  0  0  0  0  0  0  0999 V2000
   -0.9458    0.8500    0.0000 C   0  0  0  0  0  0  0  0  0  0  0  0
   -1.6625    0.5125    0.0000 N   0  0  0  0  0  0  0  0  0  0  0  0
   -1.0208    1.6333    0.0000 N   0  0  0  0  0  0  0  0  0  0  0  0
   -0.2208    0.4333    0.0000 C   0  0  0  0  0  0  0  0  0  0  0  0
   -2.2208    1.0958    0.0000 C   0  0  0  0  0  0  0  0  0  0  0  0
   -1.8000    1.8125    0.0000 N   0  0  0  0  0  0  0  0  0  0  0  0
    0.5000    0.8500    0.0000 N   0  0  0  0  0  0  0  0  0  0  0  0
    0.4792    1.6708    0.0000 C   0  0  0  0  0  0  0  0  0  0  0  0
   -0.2208   -0.3875    0.0000 C   0  0  0  0  0  0  0  0  0  0  0  0
    1.1792    2.0958    0.0000 C   0  0  0  0  0  0  0  0  0  0  0  0
   -0.2458    2.0958    0.0000 O   0  0  0  0  0  0  0  0  0  0  0  0
   -2.9625    0.9625    0.0000 S   0  0  0  0  0  0  0  0  0  0  0  0
    0.5000   -0.8042    0.0000 C   0  0  0  0  0  0  0  0  0  0  0  0
    1.1792    2.9125    0.0000 C   0  0  0  0  0  0  0  0  0  0  0  0
    1.9000    1.6958    0.0000 C   0  0  0  0  0  0  0  0  0  0  0  0
    1.9167   -1.6042    0.0000 C   0  0  0  0  0  0  0  0  0  0  0  0
    2.6000    2.1125    0.0000 C   0  0  0  0  0  0  0  0  0  0  0  0
    1.8792    3.3125    0.0000 C   0  0  0  0  0  0  0  0  0  0  0  0
    2.6000    2.9333    0.0000 C   0  0  0  0  0  0  0  0  0  0  0  0
    2.6542   -2.0292    0.0000 Br  0  0  0  0  0  0  0  0  0  0  0  0
    1.2000   -0.3875    0.0000 C   0  0  0  0  0  0  0  0  0  0  0  0
    0.5167   -1.6292    0.0000 C   0  0  0  0  0  0  0  0  0  0  0  0
    1.9167   -0.7875    0.0000 C   0  0  0  0  0  0  0  0  0  0  0  0
    1.2167   -2.0292    0.0000 C   0  0  0  0  0  0  0  0  0  0  0  0
    3.2792    3.3458    0.0000 C   0  0  0  0  0  0  0  0  0  0  0  0
  2  1  1  0  0  0  0
  3  1  2  0  0  0  0
  4  1  1  0  0  0  0
  5  2  1  0  0  0  0
  6  3  1  0  0  0  0
  7  4  1  0  0  0  0
  8  7  1  0  0  0  0
  9  4  2  0  0  0  0
 10  8  1  0  0  0  0
 11  8  2  0  0  0  0
 12  5  1  0  0  0  0
 13  9  1  0  0  0  0
 14 10  1  0  0  0  0
 15 10  2  0  0  0  0
 16 24  2  0  0  0  0
 17 15  1  0  0  0  0
 18 14  2  0  0  0  0
 19 17  2  0  0  0  0
 20 16  1  0  0  0  0
 21 13  1  0  0  0  0
 22 13  2  0  0  0  0
 23 21  2  0  0  0  0
 24 22  1  0  0  0  0
 25 19  1  0  0  0  0
  5  6  2  0  0  0  0
 23 16  1  0  0  0  0
 19 18  1  0  0  0  0
M  END
> <#>
860

> <PLATE>
LAT011

> <ROW>
D

> <COL>
9

> <COORD>
D09

> <LATID>
LAT011D09

> <Supplier>
Chembridge

> <Suplier_CAT#>
5652346

> <Name>
Novel

> <Sec_Name>
201_H09

> <Concentration_(mM)>
2.5

> <IC50_(µM)>
inactive

> <Yeast_Active?>
-

> <Pubchem_CID>
NULL

$$$$
