
  -ISIS-  08130814242D

 34 38  0  0  0  0  0  0  0  0999 V2000
    6.4042   -3.1625    0.0000 C   0  0  1  0  0  0  0  0  0  0  0  0
    5.7167   -3.5625    0.0000 C   0  0  2  0  0  0  0  0  0  0  0  0
    5.7208   -4.3583    0.0000 C   0  0  2  0  0  0  0  0  0  0  0  0
    3.6625   -4.7667    0.0000 C   0  0  2  0  0  0  0  0  0  0  0  0
    5.0375   -4.7583    0.0000 C   0  0  1  0  0  0  0  0  0  0  0  0
    7.0958   -3.5542    0.0000 C   0  0  1  0  0  0  0  0  0  0  0  0
    4.3458   -4.3667    0.0000 C   0  0  2  0  0  0  0  0  0  0  0  0
    3.6667   -5.5625    0.0000 C   0  0  0  0  0  0  0  0  0  0  0  0
    6.9875   -2.5750    0.0000 O   0  0  0  0  0  0  0  0  0  0  0  0
    5.0292   -3.1708    0.0000 C   0  0  0  0  0  0  0  0  0  0  0  0
    4.3375   -3.5708    0.0000 C   0  0  2  0  0  0  0  0  0  0  0  0
    2.9708   -4.3750    0.0000 C   0  0  0  0  0  0  0  0  0  0  0  0
    7.0875   -4.3625    0.0000 C   0  0  0  0  0  0  0  0  0  0  0  0
    7.8917   -3.3375    0.0000 O   0  0  0  0  0  0  0  0  0  0  0  0
    6.4000   -2.3375    0.0000 C   0  0  0  0  0  0  0  0  0  0  0  0
    2.9792   -5.9667    0.0000 C   0  0  0  0  0  0  0  0  0  0  0  0
    7.8125   -2.5750    0.0000 C   0  0  3  0  0  0  0  0  0  0  0  0
    5.0458   -5.5542    0.0000 C   0  0  0  0  0  0  0  0  0  0  0  0
    2.2792   -4.7750    0.0000 C   0  0  0  0  0  0  0  0  0  0  0  0
    2.2875   -5.5667    0.0000 C   0  0  0  0  0  0  0  0  0  0  0  0
    4.3542   -5.9583    0.0000 C   0  0  0  0  0  0  0  0  0  0  0  0
    5.6792   -1.9292    0.0000 O   0  0  0  0  0  0  0  0  0  0  0  0
    1.5667   -5.9792    0.0000 O   0  0  0  0  0  0  0  0  0  0  0  0
    5.5000   -2.7625    0.0000 C   0  0  0  0  0  0  0  0  0  0  0  0
    3.6167   -3.1542    0.0000 O   0  0  0  0  0  0  0  0  0  0  0  0
    3.4417   -3.9667    0.0000 C   0  0  0  0  0  0  0  0  0  0  0  0
    7.1083   -1.9167    0.0000 C   0  0  0  0  0  0  0  0  0  0  0  0
    7.1042   -1.0917    0.0000 O   0  0  0  0  0  0  0  0  0  0  0  0
    8.5250   -2.1625    0.0000 C   0  0  0  0  0  0  0  0  0  0  0  0
    9.2375   -2.5667    0.0000 C   0  0  0  0  0  0  0  0  0  0  0  0
    9.9500   -2.1542    0.0000 C   0  0  0  0  0  0  0  0  0  0  0  0
    4.3417   -5.1917    0.0000 H   0  0  0  0  0  0  0  0  0  0  0  0
    5.0292   -3.9292    0.0000 H   0  0  0  0  0  0  0  0  0  0  0  0
    5.9292   -5.1542    0.0000 H   0  0  0  0  0  0  0  0  0  0  0  0
  2  1  1  0  0  0  0
  3  2  1  0  0  0  0
  4  7  1  0  0  0  0
  5  3  1  0  0  0  0
  6  1  1  0  0  0  0
  7 11  1  0  0  0  0
  8  4  1  0  0  0  0
  1  9  1  6  0  0  0
 10  2  1  0  0  0  0
 11 10  1  0  0  0  0
 12  4  1  0  0  0  0
 13  6  1  0  0  0  0
  6 14  1  6  0  0  0
 15  1  1  0  0  0  0
 16  8  2  0  0  0  0
 17  9  1  0  0  0  0
 18  5  1  0  0  0  0
 19 12  2  0  0  0  0
 20 19  1  0  0  0  0
 21 18  1  0  0  0  0
 22 15  2  0  0  0  0
 23 20  2  0  0  0  0
  2 24  1  1  0  0  0
 11 25  1  1  0  0  0
  4 26  1  1  0  0  0
 27 15  1  0  0  0  0
 28 27  1  0  0  0  0
 29 17  1  0  0  0  0
 30 29  1  0  0  0  0
 31 30  1  0  0  0  0
  7 32  1  6  0  0  0
  5 33  1  1  0  0  0
  3 34  1  6  0  0  0
 14 17  1  0  0  0  0
  3 13  1  0  0  0  0
  5  7  1  0  0  0  0
  8 21  1  0  0  0  0
 20 16  1  0  0  0  0
M  END
> <#>
206

> <PLATE>
LAT003

> <ROW>
F

> <COL>
7

> <COORD>
F07

> <LATID>
LAT003F07

> <Supplier>
Sigma

> <Suplier_CAT#>
B 7777

> <Name>
Budesonide

> <Concentration_(mM)>
2.5

> <IC50_(µM)>
9.3

> <Yeast_Active?>
-

> <Pubchem_CID>
2462

> <Description>
Anti-inflammatory glucocorticoid

$$$$
