
  -ISIS-  08130814242D

 18 19  0  0  0  0  0  0  0  0999 V2000
    3.0917   -1.4917    0.0000 C   0  0  0  0  0  0  0  0  0  0  0  0
    4.2167   -2.1417    0.0000 C   0  0  0  0  0  0  0  0  0  0  0  0
    2.7167   -2.1417    0.0000 C   0  0  0  0  0  0  0  0  0  0  0  0
    5.3417   -2.7875    0.0000 C   0  0  0  0  0  0  0  0  0  0  0  0
    3.8417   -1.4917    0.0000 C   0  0  0  0  0  0  0  0  0  0  0  0
    4.9667   -2.1417    0.0000 C   0  0  3  0  0  0  0  0  0  0  0  0
    3.0917   -2.7875    0.0000 C   0  0  0  0  0  0  0  0  0  0  0  0
    3.8417   -2.7875    0.0000 C   0  0  0  0  0  0  0  0  0  0  0  0
    6.0917   -2.7875    0.0000 O   0  0  0  0  0  0  0  0  0  0  0  0
    1.9667   -2.1417    0.0000 C   0  0  0  0  0  0  0  0  0  0  0  0
    2.7125   -0.8375    0.0000 F   0  0  0  0  0  0  0  0  0  0  0  0
    4.9667   -3.4375    0.0000 O   0  0  0  0  0  0  0  0  0  0  0  0
    5.3417   -1.4917    0.0000 C   0  0  0  0  0  0  0  0  0  0  0  0
    1.5917   -1.4917    0.0000 C   0  0  0  0  0  0  0  0  0  0  0  0
    1.5917   -2.7917    0.0000 C   0  0  0  0  0  0  0  0  0  0  0  0
    0.8417   -2.7917    0.0000 C   0  0  0  0  0  0  0  0  0  0  0  0
    0.8417   -1.4917    0.0000 C   0  0  0  0  0  0  0  0  0  0  0  0
    0.4667   -2.1417    0.0000 C   0  0  0  0  0  0  0  0  0  0  0  0
  2  5  2  0  0  0  0
  3  1  2  0  0  0  0
  4  6  1  0  0  0  0
  5  1  1  0  0  0  0
  6  2  1  0  0  0  0
  7  3  1  0  0  0  0
  8  2  1  0  0  0  0
  9  4  2  0  0  0  0
 10  3  1  0  0  0  0
 11  1  1  0  0  0  0
 12  4  1  0  0  0  0
 13  6  1  0  0  0  0
 14 10  1  0  0  0  0
 15 10  2  0  0  0  0
 16 15  1  0  0  0  0
 17 14  2  0  0  0  0
 18 16  2  0  0  0  0
  7  8  2  0  0  0  0
 17 18  1  0  0  0  0
M  END
> <#>
56

> <PLATE>
LAT001

> <ROW>
H

> <COL>
8

> <COORD>
H08

> <LATID>
LAT001H08

> <Supplier>
Microsource

> <Suplier_CAT#>
01500308

> <Name>
Flurbiprofen

> <Concentration_(mM)>
2.5

> <IC50_(µM)>
39

> <Yeast_Active?>
-

> <Pubchem_CID>
3394

> <Description>
Antiinflammatory, Analgesic

$$$$
