
  -ISIS-  08130814242D

 13 13  0  0  0  0  0  0  0  0999 V2000
    3.9042   -1.1625    0.0000 C   0  0  0  0  0  0  0  0  0  0  0  0
    3.0792   -1.1667    0.0000 C   0  0  0  0  0  0  0  0  0  0  0  0
    4.3167   -1.8750    0.0000 C   0  0  0  0  0  0  0  0  0  0  0  0
    6.3750   -2.5875    0.0000 C   0  0  0  0  0  0  0  0  0  0  0  0
    5.1417   -1.8750    0.0000 O   0  0  0  0  0  0  0  0  0  0  0  0
    6.7792   -1.8667    0.0000 O   0  0  0  0  0  0  0  0  0  0  0  0
    3.9042   -2.5875    0.0000 C   0  0  0  0  0  0  0  0  0  0  0  0
    2.6750   -1.8792    0.0000 C   0  0  0  0  0  0  0  0  0  0  0  0
    5.5542   -2.5875    0.0000 C   0  0  0  0  0  0  0  0  0  0  0  0
    4.3167   -0.4500    0.0000 Cl  0  0  0  0  0  0  0  0  0  0  0  0
    6.7875   -3.3000    0.0000 O   0  0  0  0  0  0  0  0  0  0  0  0
    3.0792   -2.5875    0.0000 C   0  0  0  0  0  0  0  0  0  0  0  0
    1.8500   -1.8792    0.0000 Cl  0  0  0  0  0  0  0  0  0  0  0  0
  2  1  1  0  0  0  0
  3  1  2  0  0  0  0
  4  9  1  0  0  0  0
  5  3  1  0  0  0  0
  6  4  2  0  0  0  0
  7  3  1  0  0  0  0
  8  2  2  0  0  0  0
  9  5  1  0  0  0  0
 10  1  1  0  0  0  0
 11  4  1  0  0  0  0
 12  7  2  0  0  0  0
 13  8  1  0  0  0  0
  8 12  1  0  0  0  0
M  END
> <#>
182

> <PLATE>
LAT003

> <ROW>
F

> <COL>
4

> <COORD>
F04

> <LATID>
LAT003F04

> <Supplier>
Microsource

> <Suplier_CAT#>
00330040

> <Name>
2,4-Dichlorophenoxyacetic Acid

> <Concentration_(mM)>
2.5

> <IC50_(µM)>
0.084

> <Yeast_Active?>
-

> <Pubchem_CID>
1486

> <Description>
Herbicide

> <Comment>
Auxin agonist

$$$$
