
  -ISIS-  08130814242D

 90 96  0  0  0  0  0  0  0  0999 V2000
    2.6292   -2.8917    0.0000 C   0  0  0  0  0  0  0  0  0  0  0  0
    2.2167   -2.1917    0.0000 C   0  0  0  0  0  0  0  0  0  0  0  0
    1.4000   -2.1875    0.0000 C   0  0  0  0  0  0  0  0  0  0  0  0
    2.6292   -1.4792    0.0000 N   0  0  0  0  0  0  0  0  0  0  0  0
    2.2250   -3.6042    0.0000 C   0  0  0  0  0  0  0  0  0  0  0  0
    2.2167   -0.7750    0.0000 C   0  0  0  0  0  0  0  0  0  0  0  0
    0.9917   -2.8917    0.0000 C   0  0  0  0  0  0  0  0  0  0  0  0
    3.4542   -2.8917    0.0000 C   0  0  0  0  0  0  0  0  0  0  0  0
    1.4000   -3.6042    0.0000 C   0  0  0  0  0  0  0  0  0  0  0  0
    2.6292   -0.0625    0.0000 C   0  0  0  0  0  0  0  0  0  0  0  0
    0.9917   -1.4792    0.0000 O   0  0  0  0  0  0  0  0  0  0  0  0
    6.3667    0.9458    0.0000 N   0  0  0  0  0  0  0  0  0  0  0  0
    6.0917   -4.3625    0.0000 N   0  0  0  0  0  0  0  0  0  0  0  0
    5.1417   -6.4625    0.0000 C   0  0  0  0  0  0  0  0  0  0  0  0
    5.4167   -1.1542    0.0000 C   0  0  0  0  0  0  0  0  0  0  0  0
    4.6667   -4.3667    0.0000 C   0  0  3  0  0  0  0  0  0  0  0  0
    4.9417    0.9458    0.0000 C   0  0  3  0  0  0  0  0  0  0  0  0
    5.3792   -3.9542    0.0000 C   0  0  0  0  0  0  0  0  0  0  0  0
    5.6542    1.3583    0.0000 C   0  0  0  0  0  0  0  0  0  0  0  0
    9.4292    0.2250    0.0000 C   0  0  0  0  0  0  0  0  0  0  0  0
    9.1542   -5.0792    0.0000 C   0  0  0  0  0  0  0  0  0  0  0  0
    6.8625   -6.1500    0.0000 N   0  0  3  0  0  0  0  0  0  0  0  0
    7.1375   -0.8417    0.0000 N   0  0  3  0  0  0  0  0  0  0  0  0
    9.2625   -0.6792    0.0000 N   0  0  3  0  0  0  0  0  0  0  0  0
    8.9875   -5.9917    0.0000 N   0  0  3  0  0  0  0  0  0  0  0  0
    3.4542   -0.0625    0.0000 C   0  0  0  0  0  0  0  0  0  0  0  0
    1.4000   -0.7667    0.0000 C   0  0  0  0  0  0  0  0  0  0  0  0
    7.8875   -1.3667    0.0000 C   0  0  0  0  0  0  0  0  0  0  0  0
    7.6125   -6.6792    0.0000 C   0  0  0  0  0  0  0  0  0  0  0  0
    3.6125   -3.9042    0.0000 N   0  0  0  0  0  0  0  0  0  0  0  0
    7.7917    0.9500    0.0000 C   0  0  0  0  0  0  0  0  0  0  0  0
    7.5167   -4.3542    0.0000 C   0  0  0  0  0  0  0  0  0  0  0  0
    3.8292    0.7833    0.0000 N   0  0  0  0  0  0  0  0  0  0  0  0
    6.8042   -3.9500    0.0000 C   0  0  3  0  0  0  0  0  0  0  0  0
    7.0792    1.3583    0.0000 C   0  0  3  0  0  0  0  0  0  0  0  0
    4.9417   -0.6000    0.0000 O   0  0  0  0  0  0  0  0  0  0  0  0
    4.6667   -5.9042    0.0000 O   0  0  0  0  0  0  0  0  0  0  0  0
    6.0167   -6.6792    0.0000 C   0  0  3  0  0  0  0  0  0  0  0  0
    6.2917   -1.3667    0.0000 C   0  0  3  0  0  0  0  0  0  0  0  0
    8.9792   -4.2792    0.0000 C   0  0  3  0  0  0  0  0  0  0  0  0
    9.2542    1.0333    0.0000 C   0  0  3  0  0  0  0  0  0  0  0  0
    8.5042    1.3625    0.0000 C   0  0  3  0  0  0  0  0  0  0  0  0
    8.2292   -3.9417    0.0000 C   0  0  3  0  0  0  0  0  0  0  0  0
    4.8792   -5.1625    0.0000 C   0  0  3  0  0  0  0  0  0  0  0  0
    5.1542    0.1458    0.0000 C   0  0  3  0  0  0  0  0  0  0  0  0
    8.8875   -1.4917    0.0000 C   0  0  0  0  0  0  0  0  0  0  0  0
    8.6125   -6.8042    0.0000 C   0  0  0  0  0  0  0  0  0  0  0  0
    2.2167    0.6500    0.0000 C   0  0  0  0  0  0  0  0  0  0  0  0
    4.7750   -6.9917    0.0000 O   0  0  0  0  0  0  0  0  0  0  0  0
    5.0500   -1.6792    0.0000 O   0  0  0  0  0  0  0  0  0  0  0  0
    3.8667   -2.1792    0.0000 O   0  0  0  0  0  0  0  0  0  0  0  0
    0.9875   -0.0667    0.0000 C   0  0  0  0  0  0  0  0  0  0  0  0
    9.9542   -5.0875    0.0000 O   0  0  0  0  0  0  0  0  0  0  0  0
   10.2292    0.2208    0.0000 O   0  0  0  0  0  0  0  0  0  0  0  0
    0.9792   -4.3167    0.0000 O   0  0  0  0  0  0  0  0  0  0  0  0
    5.6542    2.1833    0.0000 O   0  0  0  0  0  0  0  0  0  0  0  0
    5.3792   -3.1292    0.0000 O   0  0  0  0  0  0  0  0  0  0  0  0
    7.6042   -1.9667    0.0000 O   0  0  0  0  0  0  0  0  0  0  0  0
    7.3292   -7.2750    0.0000 O   0  0  0  0  0  0  0  0  0  0  0  0
    7.5167   -5.0625    0.0000 O   0  0  0  0  0  0  0  0  0  0  0  0
    7.7917    0.2458    0.0000 O   0  0  0  0  0  0  0  0  0  0  0  0
    3.6667   -0.8625    0.0000 O   0  0  0  0  0  0  0  0  0  0  0  0
    2.6375   -4.3167    0.0000 N   0  0  0  0  0  0  0  0  0  0  0  0
    1.3917    0.6458    0.0000 C   0  0  0  0  0  0  0  0  0  0  0  0
    7.0792    2.1833    0.0000 C   0  0  3  0  0  0  0  0  0  0  0  0
    6.8042   -3.1250    0.0000 C   0  0  3  0  0  0  0  0  0  0  0  0
    6.3375   -1.8792    0.0000 C   0  0  3  0  0  0  0  0  0  0  0  0
    6.0625   -7.1917    0.0000 C   0  0  3  0  0  0  0  0  0  0  0  0
    0.1667   -2.8917    0.0000 C   0  0  0  0  0  0  0  0  0  0  0  0
    7.0750   -0.0292    0.0000 C   0  0  0  0  0  0  0  0  0  0  0  0
    6.8000   -5.3375    0.0000 C   0  0  0  0  0  0  0  0  0  0  0  0
    9.7042   -6.2417    0.0000 C   0  0  0  0  0  0  0  0  0  0  0  0
    9.9792   -0.9292    0.0000 C   0  0  0  0  0  0  0  0  0  0  0  0
    9.5292   -3.6667    0.0000 C   0  0  0  0  0  0  0  0  0  0  0  0
    9.8042    1.6458    0.0000 C   0  0  0  0  0  0  0  0  0  0  0  0
    8.3167   -3.1250    0.0000 C   0  0  0  0  0  0  0  0  0  0  0  0
    8.5917    2.1833    0.0000 C   0  0  0  0  0  0  0  0  0  0  0  0
    5.7042   -5.1667    0.0000 C   0  0  0  0  0  0  0  0  0  0  0  0
    5.9792    0.1458    0.0000 C   0  0  0  0  0  0  0  0  0  0  0  0
    9.1167   -2.9542    0.0000 C   0  0  0  0  0  0  0  0  0  0  0  0
    9.3917    2.3583    0.0000 C   0  0  0  0  0  0  0  0  0  0  0  0
    0.1625   -0.0667    0.0000 C   0  0  0  0  0  0  0  0  0  0  0  0
    6.3625    2.5958    0.0000 C   0  0  0  0  0  0  0  0  0  0  0  0
    7.5167   -2.7042    0.0000 C   0  0  0  0  0  0  0  0  0  0  0  0
    6.0875   -2.7125    0.0000 C   0  0  0  0  0  0  0  0  0  0  0  0
    7.7917    2.6000    0.0000 C   0  0  0  0  0  0  0  0  0  0  0  0
    5.3292   -7.5250    0.0000 C   0  0  0  0  0  0  0  0  0  0  0  0
    6.7042   -7.5250    0.0000 C   0  0  0  0  0  0  0  0  0  0  0  0
    5.6042   -2.2167    0.0000 C   0  0  0  0  0  0  0  0  0  0  0  0
    6.9792   -2.2167    0.0000 C   0  0  0  0  0  0  0  0  0  0  0  0
  2  1  1  0  0  0  0
  3  2  1  0  0  0  0
  4  2  2  0  0  0  0
  5  1  2  0  0  0  0
  6  4  1  0  0  0  0
  7  9  1  0  0  0  0
  8  1  1  0  0  0  0
  9  5  1  0  0  0  0
 10  6  2  0  0  0  0
 11  3  1  0  0  0  0
 12 19  1  0  0  0  0
 13 18  1  0  0  0  0
 14 37  1  0  0  0  0
 15 36  1  0  0  0  0
 16 30  1  0  0  0  0
 17 33  1  0  0  0  0
 18 16  1  0  0  0  0
 19 17  1  0  0  0  0
 20 41  1  0  0  0  0
 21 40  1  0  0  0  0
 22 38  1  0  0  0  0
 23 39  1  0  0  0  0
 24 46  1  0  0  0  0
 25 47  1  0  0  0  0
 26 10  1  0  0  0  0
 27  6  1  0  0  0  0
 28 23  1  0  0  0  0
 29 22  1  0  0  0  0
 30  8  1  0  0  0  0
 31 35  1  0  0  0  0
 32 34  1  0  0  0  0
 33 26  1  0  0  0  0
 34 13  1  0  0  0  0
 35 12  1  0  0  0  0
 36 45  1  0  0  0  0
 37 44  1  0  0  0  0
 38 14  1  0  0  0  0
 39 15  1  0  0  0  0
 40 43  1  0  0  0  0
 41 42  1  0  0  0  0
 42 31  1  0  0  0  0
 43 32  1  0  0  0  0
 44 16  1  0  0  0  0
 45 17  1  0  0  0  0
 46 28  1  0  0  0  0
 47 29  1  0  0  0  0
 48 10  1  0  0  0  0
 49 14  2  0  0  0  0
 50 15  2  0  0  0  0
 51  8  2  0  0  0  0
 52 27  2  0  0  0  0
 53 21  2  0  0  0  0
 54 20  2  0  0  0  0
 55  9  2  0  0  0  0
 56 19  2  0  0  0  0
 57 18  2  0  0  0  0
 58 28  2  0  0  0  0
 59 29  2  0  0  0  0
 60 32  2  0  0  0  0
 61 31  2  0  0  0  0
 62 26  2  0  0  0  0
 63  5  1  0  0  0  0
 64 52  1  0  0  0  0
 65 35  1  0  0  0  0
 66 34  1  0  0  0  0
 67 39  1  0  0  0  0
 68 38  1  0  0  0  0
 69  7  1  0  0  0  0
 70 23  1  0  0  0  0
 71 22  1  0  0  0  0
 72 25  1  0  0  0  0
 73 24  1  0  0  0  0
 74 40  1  0  0  0  0
 75 41  1  0  0  0  0
 76 43  1  0  0  0  0
 77 42  1  0  0  0  0
 78 44  1  0  0  0  0
 79 45  1  0  0  0  0
 80 76  1  0  0  0  0
 81 77  1  0  0  0  0
 82 52  1  0  0  0  0
 83 65  1  0  0  0  0
 84 66  1  0  0  0  0
 85 66  1  0  0  0  0
 86 65  1  0  0  0  0
 87 68  1  0  0  0  0
 88 68  1  0  0  0  0
 89 67  1  0  0  0  0
 90 67  1  0  0  0  0
  3  7  2  0  0  0  0
 11 27  1  0  0  0  0
 48 64  2  0  0  0  0
 74 80  1  0  0  0  0
 21 25  1  0  0  0  0
 75 81  1  0  0  0  0
 20 24  1  0  0  0  0
M  END
> <#>
159

> <PLATE>
LAT002

> <ROW>
G

> <COL>
11

> <COORD>
G11

> <LATID>
LAT002G11

> <Supplier>
Microsource

> <Suplier_CAT#>
00330001

> <Name>
Dactinomycin

> <Concentration_(mM)>
2.5

> <IC50_(µM)>
5.8

> <Yeast_Active?>
-

> <Pubchem_CID>
2019

> <Description>
Antineoplastic, Intercalating Agent

> <Source>
Natural Product; ex Actinomyces spp

$$$$
