
  -ISIS-  08130814242D

 23 25  0  0  0  0  0  0  0  0999 V2000
    0.5042   -1.1375    0.0000 C   0  0  0  0  0  0  0  0  0  0  0  0
   -0.2500   -0.8000    0.0000 N   0  0  0  0  0  0  0  0  0  0  0  0
    0.4292   -1.9792    0.0000 N   0  0  3  0  0  0  0  0  0  0  0  0
    1.2500   -0.7000    0.0000 C   0  0  0  0  0  0  0  0  0  0  0  0
   -0.4125   -2.1542    0.0000 C   0  0  0  0  0  0  0  0  0  0  0  0
   -0.8333   -1.4167    0.0000 C   0  0  0  0  0  0  0  0  0  0  0  0
    1.9875   -1.1167    0.0000 N   0  0  0  0  0  0  0  0  0  0  0  0
    5.6875   -2.3792    0.0000 C   0  0  0  0  0  0  0  0  0  0  0  0
    2.7292   -0.7000    0.0000 N   0  0  0  0  0  0  0  0  0  0  0  0
    4.9292   -1.9542    0.0000 C   0  0  0  0  0  0  0  0  0  0  0  0
    6.4292   -1.9167    0.0000 O   0  0  0  0  0  0  0  0  0  0  0  0
    4.1875   -2.4000    0.0000 C   0  0  0  0  0  0  0  0  0  0  0  0
    4.9292   -1.1375    0.0000 C   0  0  0  0  0  0  0  0  0  0  0  0
    3.4667   -1.1167    0.0000 C   0  0  0  0  0  0  0  0  0  0  0  0
    1.0875   -2.5167    0.0000 C   0  0  0  0  0  0  0  0  0  0  0  0
    5.7042   -3.2167    0.0000 O   0  0  0  0  0  0  0  0  0  0  0  0
    4.1875   -0.7000    0.0000 C   0  0  0  0  0  0  0  0  0  0  0  0
    3.4667   -1.9792    0.0000 C   0  0  0  0  0  0  0  0  0  0  0  0
    1.2500    0.1625    0.0000 C   0  0  0  0  0  0  0  0  0  0  0  0
   -0.8333   -2.9000    0.0000 C   0  0  0  0  0  0  0  0  0  0  0  0
   -1.6708   -1.4167    0.0000 C   0  0  0  0  0  0  0  0  0  0  0  0
   -1.6958   -2.9000    0.0000 C   0  0  0  0  0  0  0  0  0  0  0  0
   -2.0958   -2.1542    0.0000 C   0  0  0  0  0  0  0  0  0  0  0  0
  2  1  2  0  0  0  0
  3  1  1  0  0  0  0
  4  1  1  0  0  0  0
  5  3  1  0  0  0  0
  6  2  1  0  0  0  0
  7  4  2  0  0  0  0
  8 10  1  0  0  0  0
  9  7  1  0  0  0  0
 10 12  1  0  0  0  0
 11  8  2  0  0  0  0
 12 18  2  0  0  0  0
 13 17  1  0  0  0  0
 14  9  1  0  0  0  0
 15  3  1  0  0  0  0
 16  8  1  0  0  0  0
 17 14  2  0  0  0  0
 18 14  1  0  0  0  0
 19  4  1  0  0  0  0
 20  5  1  0  0  0  0
 21  6  1  0  0  0  0
 22 20  2  0  0  0  0
 23 21  2  0  0  0  0
  6  5  2  0  0  0  0
 23 22  1  0  0  0  0
 10 13  2  0  0  0  0
M  END
> <#>
857

> <PLATE>
LAT011

> <ROW>
A

> <COL>
9

> <COORD>
A09

> <LATID>
LAT011A09

> <Supplier>
Chembridge

> <Suplier_CAT#>
5652128

> <Name>
Novel

> <Sec_Name>
201_B08

> <Concentration_(mM)>
2.5

> <IC50_(µM)>
>100

> <Yeast_Active?>
-

> <Pubchem_CID>
2858347

$$$$
