
  -ISIS-  08130814242D

 35 38  0  0  0  0  0  0  0  0999 V2000
    3.1792   -1.2587    0.0000 C   0  0  0  0  0  0  0  0  0  0  0  0
    6.9292   -3.4238    0.0000 C   0  0  0  0  0  0  0  0  0  0  0  0
    5.6792   -3.4238    0.0000 C   0  0  0  0  0  0  0  0  0  0  0  0
    5.0542   -4.5063    0.0000 C   0  0  0  0  0  0  0  0  0  0  0  0
    3.8042   -4.5063    0.0000 C   0  0  0  0  0  0  0  0  0  0  0  0
    3.1792   -3.4238    0.0000 C   0  0  0  0  0  0  0  0  0  0  0  0
    3.8042   -2.3413    0.0000 C   0  0  0  0  0  0  0  0  0  0  0  0
    5.0542   -2.3413    0.0000 C   0  0  0  0  0  0  0  0  0  0  0  0
    7.5542   -4.5063    0.0000 O   0  0  0  0  0  0  0  0  0  0  0  0
    7.5542   -2.3413    0.0000 C   0  0  0  0  0  0  0  0  0  0  0  0
    6.9292   -1.2587    0.0000 C   0  0  0  0  0  0  0  0  0  0  0  0
    7.5542   -0.1762    0.0000 C   0  0  0  0  0  0  0  0  0  0  0  0
    8.8042   -0.1762    0.0000 C   0  0  0  0  0  0  0  0  0  0  0  0
    9.4292   -1.2587    0.0000 C   0  0  0  0  0  0  0  0  0  0  0  0
    8.8042   -2.3413    0.0000 C   0  0  0  0  0  0  0  0  0  0  0  0
    1.9292   -3.4238    0.0000 O   0  0  0  0  0  0  0  0  0  0  0  0
    1.3042   -4.5063    0.0000 C   0  0  0  0  0  0  0  0  0  0  0  0
    5.6792   -5.5889    0.0000 O   0  0  0  0  0  0  0  0  0  0  0  0
   -0.5708   -3.4238    0.0000 C   0  0  0  0  0  0  0  0  0  0  0  0
    0.0542   -2.3413    0.0000 C   0  0  0  0  0  0  0  0  0  0  0  0
   -0.5708   -1.2587    0.0000 C   0  0  0  0  0  0  0  0  0  0  0  0
    0.0542   -0.1762    0.0000 C   0  0  0  0  0  0  0  0  0  0  0  0
    1.3042   -0.1762    0.0000 C   0  0  0  0  0  0  0  0  0  0  0  0
    1.9292   -1.2587    0.0000 C   0  0  0  0  0  0  0  0  0  0  0  0
    1.3042   -2.3413    0.0000 C   0  0  0  0  0  0  0  0  0  0  0  0
    0.0542   -4.5063    0.0000 O   0  0  0  0  0  0  0  0  0  0  0  0
   -1.8208   -3.4238    0.0000 C   0  0  0  0  0  0  0  0  0  0  0  0
   -2.4458   -2.3413    0.0000 C   0  0  0  0  0  0  0  0  0  0  0  0
   -3.6958   -2.3413    0.0000 C   0  0  0  0  0  0  0  0  0  0  0  0
   -4.3208   -3.4238    0.0000 C   0  0  0  0  0  0  0  0  0  0  0  0
   -3.6958   -4.5063    0.0000 C   0  0  0  0  0  0  0  0  0  0  0  0
   -2.4458   -4.5063    0.0000 C   0  0  0  0  0  0  0  0  0  0  0  0
    1.9292    0.9063    0.0000 O   0  0  0  0  0  0  0  0  0  0  0  0
    1.3042    1.9889    0.0000 C   0  0  0  0  0  0  0  0  0  0  0  0
   -1.8208   -1.2587    0.0000 O   0  0  0  0  0  0  0  0  0  0  0  0
  2  3  1  0  0  0  0
  3  4  1  0  0  0  0
  4  5  2  0  0  0  0
  5  6  1  0  0  0  0
  6  7  2  0  0  0  0
  7  8  1  0  0  0  0
  3  8  2  0  0  0  0
 10 11  1  0  0  0  0
 11 12  2  0  0  0  0
 12 13  1  0  0  0  0
 13 14  2  0  0  0  0
 14 15  1  0  0  0  0
 10 15  2  0  0  0  0
  2  9  2  0  0  0  0
  2 10  1  0  0  0  0
 16 17  1  0  0  0  0
  6 16  1  0  0  0  0
  4 18  1  0  0  0  0
  1  7  1  0  0  0  0
 19 20  1  0  0  0  0
 20 21  1  0  0  0  0
 21 22  2  0  0  0  0
 22 23  1  0  0  0  0
 23 24  2  0  0  0  0
 24 25  1  0  0  0  0
 20 25  2  0  0  0  0
 27 28  1  0  0  0  0
 28 29  2  0  0  0  0
 29 30  1  0  0  0  0
 30 31  2  0  0  0  0
 31 32  1  0  0  0  0
 27 32  2  0  0  0  0
 19 26  2  0  0  0  0
 19 27  1  0  0  0  0
 33 34  1  0  0  0  0
 23 33  1  0  0  0  0
 21 35  1  0  0  0  0
  1 24  1  0  0  0  0
M  END
> <#>
363

> <PLATE>
LAT005

> <ROW>
C

> <COL>
7

> <COORD>
C07

> <LATID>
LAT005C07

> <Supplier>
Aldrich

> <Suplier_CAT#>
463329

> <Name>
5,5'-Methylenebis(2-Hydroxy-4-Methoxy-Benzophenone)

> <Concentration_(mM)>
2.5

> <IC50_(µM)>
inactive

> <Yeast_Active?>
-

> <Pubchem_CID>
111542

$$$$
