
  -ISIS-  08130814242D

 20 21  0  0  0  0  0  0  0  0999 V2000
    4.6292   -1.4375    0.0000 N   0  0  0  0  0  0  0  0  0  0  0  0
    5.9292   -1.4500    0.0000 C   0  0  0  0  0  0  0  0  0  0  0  0
    5.2792   -1.8167    0.0000 C   0  0  0  0  0  0  0  0  0  0  0  0
    3.3292   -1.4375    0.0000 C   0  0  0  0  0  0  0  0  0  0  0  0
    3.9792   -1.8167    0.0000 N   0  0  0  0  0  0  0  0  0  0  0  0
    6.6042   -1.7500    0.0000 O   0  0  0  0  0  0  0  0  0  0  0  0
    6.0042   -0.7000    0.0000 C   0  0  0  0  0  0  0  0  0  0  0  0
    3.3292   -0.6875    0.0000 O   0  0  0  0  0  0  0  0  0  0  0  0
    7.1167   -1.1875    0.0000 C   0  0  0  0  0  0  0  0  0  0  0  0
    6.7375   -0.5375    0.0000 C   0  0  0  0  0  0  0  0  0  0  0  0
    2.6792   -1.8167    0.0000 C   0  0  0  0  0  0  0  0  0  0  0  0
    2.0292   -1.4375    0.0000 O   0  0  0  0  0  0  0  0  0  0  0  0
    1.3792   -1.8167    0.0000 C   0  0  0  0  0  0  0  0  0  0  0  0
    0.7292   -1.4375    0.0000 C   0  0  0  0  0  0  0  0  0  0  0  0
    0.0792   -1.8167    0.0000 C   0  0  0  0  0  0  0  0  0  0  0  0
    5.2792   -2.5667    0.0000 C   0  0  0  0  0  0  0  0  0  0  0  0
    0.7292   -2.9500    0.0000 C   0  0  0  0  0  0  0  0  0  0  0  0
    1.3792   -2.5667    0.0000 C   0  0  0  0  0  0  0  0  0  0  0  0
    0.0792   -2.5667    0.0000 C   0  0  0  0  0  0  0  0  0  0  0  0
   -0.5625   -1.4375    0.0000 C   0  0  0  0  0  0  0  0  0  0  0  0
  2  3  1  0  0  0  0
  3  1  2  0  0  0  0
  4  5  1  0  0  0  0
  5  1  1  0  0  0  0
  6  2  1  0  0  0  0
  7  2  2  0  0  0  0
  8  4  2  0  0  0  0
  9  6  1  0  0  0  0
 10  7  1  0  0  0  0
 11  4  1  0  0  0  0
 12 11  1  0  0  0  0
 13 12  1  0  0  0  0
 14 13  1  0  0  0  0
 15 14  2  0  0  0  0
 16  3  1  0  0  0  0
 17 18  1  0  0  0  0
 18 13  2  0  0  0  0
 19 17  2  0  0  0  0
 20 15  1  0  0  0  0
 10  9  2  0  0  0  0
 19 15  1  0  0  0  0
M  END
> <#>
705

> <PLATE>
LAT009

> <ROW>
A

> <COL>
10

> <COORD>
A10

> <LATID>
LAT009A10

> <Supplier>
Chembridge

> <Suplier_CAT#>
5540481

> <Name>
Novel

> <Sec_Name>
159_B04

> <Concentration_(mM)>
2.5

> <IC50_(µM)>
65

> <Yeast_Active?>
-

> <Pubchem_CID>
2851101

$$$$
