
  -ISIS-  08130814242D

 28 31  0  0  0  0  0  0  0  0999 V2000
   -0.4125   -0.2042    0.0000 C   0  0  0  0  0  0  0  0  0  0  0  0
   -1.2208   -0.6792    0.0000 N   0  0  0  0  0  0  0  0  0  0  0  0
   -2.0333   -0.2042    0.0000 N   0  0  3  0  0  0  0  0  0  0  0  0
    0.5042   -0.7375    0.0000 C   0  0  0  0  0  0  0  0  0  0  0  0
   -0.4125    0.7333    0.0000 C   0  0  0  0  0  0  0  0  0  0  0  0
   -2.0333    0.7333    0.0000 C   0  0  0  0  0  0  0  0  0  0  0  0
    5.2167   -0.2042    0.0000 C   0  0  0  0  0  0  0  0  0  0  0  0
    2.3542   -0.7167    0.0000 N   0  0  0  0  0  0  0  0  0  0  0  0
    4.2792   -0.7375    0.0000 C   0  0  0  0  0  0  0  0  0  0  0  0
    5.2167    0.8708    0.0000 N   0  0  0  0  0  0  0  0  0  0  0  0
    1.4167   -0.1792    0.0000 N   0  0  0  0  0  0  0  0  0  0  0  0
    0.5000   -1.8500    0.0000 O   0  0  0  0  0  0  0  0  0  0  0  0
   -2.9625   -0.7500    0.0000 C   0  0  0  0  0  0  0  0  0  0  0  0
    3.2875   -0.1792    0.0000 C   0  0  0  0  0  0  0  0  0  0  0  0
    6.1500   -0.7375    0.0000 C   0  0  0  0  0  0  0  0  0  0  0  0
   -3.8500   -0.2292    0.0000 C   0  0  0  0  0  0  0  0  0  0  0  0
   -5.7333    0.8458    0.0000 C   0  0  0  0  0  0  0  0  0  0  0  0
   -6.6542    1.3500    0.0000 Cl  0  0  0  0  0  0  0  0  0  0  0  0
   -5.7333   -0.2292    0.0000 C   0  0  0  0  0  0  0  0  0  0  0  0
   -4.7958    1.3958    0.0000 C   0  0  0  0  0  0  0  0  0  0  0  0
   -4.7958   -0.7792    0.0000 C   0  0  0  0  0  0  0  0  0  0  0  0
   -3.8500    0.8458    0.0000 C   0  0  0  0  0  0  0  0  0  0  0  0
    4.2792   -1.8167    0.0000 C   0  0  0  0  0  0  0  0  0  0  0  0
    5.2167   -2.3542    0.0000 C   0  0  0  0  0  0  0  0  0  0  0  0
    6.1500    1.4208    0.0000 C   0  0  0  0  0  0  0  0  0  0  0  0
    6.1500   -1.8167    0.0000 C   0  0  0  0  0  0  0  0  0  0  0  0
    7.0875   -0.2000    0.0000 C   0  0  0  0  0  0  0  0  0  0  0  0
    7.0875    0.8833    0.0000 C   0  0  0  0  0  0  0  0  0  0  0  0
  2  1  2  0  0  0  0
  3  2  1  0  0  0  0
  4  1  1  0  0  0  0
  5  1  1  0  0  0  0
  6  5  2  0  0  0  0
  7  9  2  0  0  0  0
  8 11  1  0  0  0  0
  9 14  1  0  0  0  0
 10  7  1  0  0  0  0
 11  4  1  0  0  0  0
 12  4  2  0  0  0  0
 13  3  1  0  0  0  0
 14  8  2  0  0  0  0
 15  7  1  0  0  0  0
 16 13  1  0  0  0  0
 17 20  2  0  0  0  0
 18 17  1  0  0  0  0
 19 21  2  0  0  0  0
 20 22  1  0  0  0  0
 21 16  1  0  0  0  0
 22 16  2  0  0  0  0
 23  9  1  0  0  0  0
 24 23  2  0  0  0  0
 25 10  2  0  0  0  0
 26 24  1  0  0  0  0
 27 15  1  0  0  0  0
 28 27  2  0  0  0  0
  3  6  1  0  0  0  0
 19 17  1  0  0  0  0
 26 15  2  0  0  0  0
 28 25  1  0  0  0  0
M  END
> <#>
975

> <PLATE>
LAT013

> <ROW>
G

> <COL>
3

> <COORD>
G03

> <LATID>
LAT013G03

> <Supplier>
Chembridge

> <Suplier_CAT#>
5751958

> <Name>
Novel

> <Sec_Name>
239_D02

> <Concentration_(mM)>
2.5

> <IC50_(µM)>
24

> <Yeast_Active?>
-

> <Pubchem_CID>
1364425

$$$$
