
  -ISIS-  08130814242D

 22 24  0  0  0  0  0  0  0  0999 V2000
   -0.1333   -0.5542    0.0000 N   0  0  3  0  0  0  0  0  0  0  0  0
   -0.5958    0.2333    0.0000 C   0  0  0  0  0  0  0  0  0  0  0  0
   -4.3208    0.2333    0.0000 N   0  3  0  0  0  0  0  0  0  0  0  0
    0.8000   -0.5542    0.0000 C   0  0  0  0  0  0  0  0  0  0  0  0
   -3.3958    0.2333    0.0000 C   0  0  0  0  0  0  0  0  0  0  0  0
   -1.5125    0.2333    0.0000 C   0  0  0  0  0  0  0  0  0  0  0  0
   -2.9208   -0.5792    0.0000 C   0  0  0  0  0  0  0  0  0  0  0  0
   -1.9833   -0.5792    0.0000 C   0  0  0  0  0  0  0  0  0  0  0  0
   -2.9208    1.0458    0.0000 C   0  0  0  0  0  0  0  0  0  0  0  0
   -4.7958    1.0333    0.0000 O   0  5  0  0  0  0  0  0  0  0  0  0
   -4.7708   -0.5667    0.0000 O   0  0  0  0  0  0  0  0  0  0  0  0
   -0.1333    1.0208    0.0000 O   0  0  0  0  0  0  0  0  0  0  0  0
   -1.9833    1.0458    0.0000 C   0  0  0  0  0  0  0  0  0  0  0  0
    1.2792   -1.3500    0.0000 C   0  0  0  0  0  0  0  0  0  0  0  0
   -0.5833   -1.3792    0.0000 C   0  0  0  0  0  0  0  0  0  0  0  0
    1.2500    0.2625    0.0000 C   0  0  0  0  0  0  0  0  0  0  0  0
   -3.3833   -1.3792    0.0000 C   0  0  0  0  0  0  0  0  0  0  0  0
   -0.1125   -2.1792    0.0000 C   0  0  0  0  0  0  0  0  0  0  0  0
    0.8167   -2.1542    0.0000 C   0  0  0  0  0  0  0  0  0  0  0  0
    2.2042   -1.3375    0.0000 C   0  0  0  0  0  0  0  0  0  0  0  0
    2.1542    0.2833    0.0000 C   0  0  0  0  0  0  0  0  0  0  0  0
    2.6500   -0.5167    0.0000 C   0  0  0  0  0  0  0  0  0  0  0  0
  2  1  1  0  0  0  0
  3  5  1  0  0  0  0
  4  1  1  0  0  0  0
  5  9  2  0  0  0  0
  6  2  1  0  0  0  0
  7  8  2  0  0  0  0
  8  6  1  0  0  0  0
  9 13  1  0  0  0  0
 10  3  1  0  0  0  0
 11  3  2  0  0  0  0
 12  2  2  0  0  0  0
 13  6  2  0  0  0  0
 14  4  2  0  0  0  0
 15  1  1  0  0  0  0
 16  4  1  0  0  0  0
 17  7  1  0  0  0  0
 18 15  1  0  0  0  0
 19 18  1  0  0  0  0
 20 14  1  0  0  0  0
 21 16  2  0  0  0  0
 22 21  1  0  0  0  0
 14 19  1  0  0  0  0
 22 20  2  0  0  0  0
  7  5  1  0  0  0  0
M  CHG  2   3   1  10  -1
M  END
> <#>
603

> <PLATE>
LAT008

> <ROW>
C

> <COL>
7

> <COORD>
C07

> <LATID>
LAT008C07

> <Supplier>
Chembridge

> <Suplier_CAT#>
5509904

> <Name>
Novel

> <Sec_Name>
145_E11

> <Concentration_(mM)>
2.5

> <IC50_(µM)>
12

> <Yeast_Active?>
-

> <Pubchem_CID>
692238

$$$$
