
  -ISIS-  08130814242D

 16 18  0  0  0  0  0  0  0  0999 V2000
    2.9042    0.0208    0.0000 C   0  0  0  0  0  0  0  0  0  0  0  0
    3.5875   -0.2875    0.0000 C   0  0  0  0  0  0  0  0  0  0  0  0
    2.9792    0.7625    0.0000 N   0  0  0  0  0  0  0  0  0  0  0  0
    2.2917   -0.4250    0.0000 C   0  0  0  0  0  0  0  0  0  0  0  0
    4.0917    0.2750    0.0000 N   0  0  0  0  0  0  0  0  0  0  0  0
    3.6667   -1.0375    0.0000 N   0  0  0  0  0  0  0  0  0  0  0  0
    2.3667   -1.1750    0.0000 N   0  0  0  0  0  0  0  0  0  0  0  0
    3.7167    0.9208    0.0000 C   0  0  0  0  0  0  0  0  0  0  0  0
    1.6000   -0.1167    0.0000 N   0  0  0  0  0  0  0  0  0  0  0  0
    3.0542   -1.4792    0.0000 C   0  0  0  0  0  0  0  0  0  0  0  0
    0.8375    0.9458    0.0000 C   0  0  0  0  0  0  0  0  0  0  0  0
    0.1417    0.6375    0.0000 O   0  0  0  0  0  0  0  0  0  0  0  0
    0.7625    1.6875    0.0000 C   0  0  0  0  0  0  0  0  0  0  0  0
   -0.3500    1.2083    0.0000 C   0  0  0  0  0  0  0  0  0  0  0  0
    0.0292    1.8458    0.0000 C   0  0  0  0  0  0  0  0  0  0  0  0
    1.5167    0.6333    0.0000 C   0  0  0  0  0  0  0  0  0  0  0  0
  2  1  2  0  0  0  0
  3  1  1  0  0  0  0
  4  1  1  0  0  0  0
  5  2  1  0  0  0  0
  6  2  1  0  0  0  0
  7  4  2  0  0  0  0
  8  3  2  0  0  0  0
  9  4  1  0  0  0  0
 10  7  1  0  0  0  0
 11 16  1  0  0  0  0
 12 11  1  0  0  0  0
 13 11  2  0  0  0  0
 14 12  1  0  0  0  0
 15 13  1  0  0  0  0
 16  9  1  0  0  0  0
  5  8  1  0  0  0  0
  6 10  2  0  0  0  0
 15 14  2  0  0  0  0
M  END
> <#>
141

> <PLATE>
LAT002

> <ROW>
E

> <COL>
9

> <COORD>
E09

> <LATID>
LAT002E09

> <Supplier>
Microsource

> <Suplier_CAT#>
01500764

> <Name>
Kinetin

> <Concentration_(mM)>
2.5

> <IC50_(µM)>
2

> <Yeast_Active?>
-

> <Pubchem_CID>
3830

> <Description>
Plant Growth Regulator

> <Source>
Natural Product; ex yeast

$$$$
