
  -ISIS-  08130814242D

 30 32  0  0  0  0  0  0  0  0999 V2000
    8.2138   -1.2676    0.0000 O   0  0  0  0  0  0  0  0  0  0  0  0
    7.8963   -0.4337    0.0000 C   0  0  2  0  0  0  0  0  0  0  0  0
    6.6708   -0.3896    0.0000 C   0  0  2  0  0  0  0  0  0  0  0  0
    6.0656   -1.1357    0.0000 N   0  0  3  0  0  0  0  0  0  0  0  0
    5.1108   -1.1076    0.0000 C   0  0  0  0  0  0  0  0  0  0  0  0
    4.7237   -0.3665    0.0000 C   0  0  0  0  0  0  0  0  0  0  0  0
    6.2042   -0.4042    0.0000 C   0  0  0  0  0  0  0  0  0  0  0  0
    5.8938    0.1271    0.0000 C   0  0  1  0  0  0  0  0  0  0  0  0
    6.0067    1.1839    0.0000 C   0  0  0  0  0  0  0  0  0  0  0  0
    5.6539    2.0760    0.0000 C   0  0  0  0  0  0  0  0  0  0  0  0
    5.1731    0.4027    0.0000 C   0  0  1  0  0  0  0  0  0  0  0  0
    4.6091    1.0997    0.0000 H   0  0  0  0  0  0  0  0  0  0  0  0
    6.1417    0.5333    0.0000 C   0  0  0  0  0  0  0  0  0  0  0  0
    8.4597    0.2583    0.0000 C   0  0  0  0  0  0  0  0  0  0  0  0
    9.3407    0.1163    0.0000 C   0  0  0  0  0  0  0  0  0  0  0  0
    9.6582   -0.7177    0.0000 C   0  0  0  0  0  0  0  0  0  0  0  0
   10.5391   -0.8597    0.0000 C   0  0  0  0  0  0  0  0  0  0  0  0
   10.8566   -1.6936    0.0000 O   0  0  0  0  0  0  0  0  0  0  0  0
   11.7376   -1.8356    0.0000 C   0  0  0  0  0  0  0  0  0  0  0  0
   11.1026   -0.1677    0.0000 C   0  0  0  0  0  0  0  0  0  0  0  0
   10.7851    0.6662    0.0000 C   0  0  0  0  0  0  0  0  0  0  0  0
    9.9041    0.8082    0.0000 C   0  0  0  0  0  0  0  0  0  0  0  0
    9.5866    1.6421    0.0000 N   0  0  0  0  0  0  0  0  0  0  0  0
    8.7057    1.7841    0.0000 C   0  0  0  0  0  0  0  0  0  0  0  0
    8.1422    1.0922    0.0000 C   0  0  0  0  0  0  0  0  0  0  0  0
    7.9678   -2.7934    0.0000 S   0  0  3  0  0  0  0  0  0  0  0  0
    7.6503   -1.9595    0.0000 O   0  0  0  0  0  0  0  0  0  0  0  0
    8.2853   -3.6274    0.0000 O   0  0  0  0  0  0  0  0  0  0  0  0
    8.8017   -2.4759    0.0000 O   0  0  0  0  0  0  0  0  0  0  0  0
    7.1339   -3.1109    0.0000 O   0  0  0  0  0  0  0  0  0  0  0  0
  4  5  1  0  0  0  0
  5  6  1  0  0  0  0
  4  7  1  0  0  0  0
  7  8  1  0  0  0  0
  8  9  1  6  0  0  0
  9 10  2  0  0  0  0
  8 11  1  0  0  0  0
 11 12  1  1  0  0  0
  6 11  1  0  0  0  0
 11 13  1  0  0  0  0
  3 13  1  6  0  0  0
  2 14  1  0  0  0  0
 14 15  2  0  0  0  0
 15 16  1  0  0  0  0
 16 17  2  0  0  0  0
 17 18  1  0  0  0  0
 18 19  1  0  0  0  0
 17 20  1  0  0  0  0
 20 21  2  0  0  0  0
 15 22  1  0  0  0  0
 21 22  1  0  0  0  0
 22 23  2  0  0  0  0
 23 24  1  0  0  0  0
 24 25  2  0  0  0  0
 14 25  1  0  0  0  0
  2  1  1  6  0  0  0
  2  3  1  0  0  0  0
  3  4  1  0  0  0  0
 26 27  2  0  0  0  0
 26 28  2  0  0  0  0
 26 29  1  0  0  0  0
 26 30  1  0  0  0  0
M  END
> <#>
512

> <PLATE>
LAT007

> <ROW>
H

> <COL>
5

> <COORD>
H05

> <LATID>
LAT007H05

> <Supplier>
Fisher

> <Suplier_CAT#>
Quinine_Sulfate

> <Name>
Quinine Sulfate

> <Concentration_(mM)>
2.5

> <IC50_(µM)>
inactive

> <Yeast_Active?>
-

> <Pubchem_CID>
11069

$$$$
