
  -ISIS-  08130814242D

 13 13  0  0  0  0  0  0  0  0999 V2000
   -3.2024   -1.2181    0.0000 C   0  0  0  0  0  0  0  0  0  0  0  0
   -2.1199   -0.5931    0.0000 C   0  0  3  0  0  0  0  0  0  0  0  0
   -2.1199    0.6569    0.0000 C   0  0  0  0  0  0  0  0  0  0  0  0
   -1.0373   -1.2181    0.0000 O   0  0  0  0  0  0  0  0  0  0  0  0
    0.0452   -0.5931    0.0000 C   0  0  0  0  0  0  0  0  0  0  0  0
    0.0452    0.6569    0.0000 O   0  0  0  0  0  0  0  0  0  0  0  0
    1.1277   -1.2181    0.0000 N   0  0  0  0  0  0  0  0  0  0  0  0
    2.2103   -0.5931    0.0000 C   0  0  0  0  0  0  0  0  0  0  0  0
    2.2103    0.6569    0.0000 C   0  0  0  0  0  0  0  0  0  0  0  0
    3.2928    1.2819    0.0000 C   0  0  0  0  0  0  0  0  0  0  0  0
    4.3753    0.6569    0.0000 C   0  0  0  0  0  0  0  0  0  0  0  0
    4.3753   -0.5931    0.0000 C   0  0  0  0  0  0  0  0  0  0  0  0
    3.2928   -1.2181    0.0000 C   0  0  0  0  0  0  0  0  0  0  0  0
  1  2  1  0  0  0  0
  2  3  1  0  0  0  0
  2  4  1  0  0  0  0
  4  5  1  0  0  0  0
  5  6  2  0  0  0  0
  5  7  1  0  0  0  0
  7  8  1  0  0  0  0
  8  9  2  0  0  0  0
  9 10  1  0  0  0  0
 10 11  2  0  0  0  0
 11 12  1  0  0  0  0
 12 13  2  0  0  0  0
  8 13  1  0  0  0  0
M  END
> <#>
379

> <PLATE>
LAT005

> <ROW>
C

> <COL>
9

> <COORD>
C09

> <LATID>
LAT005C09

> <Supplier>
Riedel-de Haen

> <Suplier_CAT#>
45641

> <Name>
Propham

> <Concentration_(mM)>
2.5

> <IC50_(µM)>
>100

> <Yeast_Active?>
-

> <Pubchem_CID>
24685

> <Description>
Herbicide

$$$$
