
  -ISIS-  08130814242D

 24 25  0  0  0  0  0  0  0  0999 V2000
    2.8792   -0.0500    0.0000 N   0  3  0  0  0  0  0  0  0  0  0  0
   -2.7833   -2.3500    0.0000 C   0  0  3  0  0  0  0  0  0  0  0  0
    2.0375    0.4708    0.0000 C   0  0  0  0  0  0  0  0  0  0  0  0
    0.4042    0.4708    0.0000 C   0  0  0  0  0  0  0  0  0  0  0  0
    2.0375    1.4125    0.0000 C   0  0  0  0  0  0  0  0  0  0  0  0
    1.2542    1.8833    0.0000 C   0  0  0  0  0  0  0  0  0  0  0  0
    0.4042    1.4125    0.0000 C   0  0  0  0  0  0  0  0  0  0  0  0
    1.2542    0.0000    0.0000 C   0  0  0  0  0  0  0  0  0  0  0  0
   -0.4000    0.0000    0.0000 C   0  0  0  0  0  0  0  0  0  0  0  0
   -2.8125   -1.4042    0.0000 C   0  0  0  0  0  0  0  0  0  0  0  0
   -1.2125    0.4708    0.0000 N   0  0  0  0  0  0  0  0  0  0  0  0
    2.8500   -0.9875    0.0000 O   0  5  0  0  0  0  0  0  0  0  0  0
    3.6875    0.4208    0.0000 O   0  0  0  0  0  0  0  0  0  0  0  0
   -1.9958   -0.9375    0.0000 C   0  0  0  0  0  0  0  0  0  0  0  0
   -1.8458   -2.3500    0.0000 F   0  0  0  0  0  0  0  0  0  0  0  0
   -2.7458   -3.2875    0.0000 F   0  0  0  0  0  0  0  0  0  0  0  0
   -3.7125   -2.3875    0.0000 F   0  0  0  0  0  0  0  0  0  0  0  0
   -2.0333    0.0000    0.0000 C   0  0  0  0  0  0  0  0  0  0  0  0
   -0.4333    1.8833    0.0000 O   0  0  0  0  0  0  0  0  0  0  0  0
    1.2875    2.8208    0.0000 O   0  0  0  0  0  0  0  0  0  0  0  0
   -3.6208   -0.9375    0.0000 C   0  0  0  0  0  0  0  0  0  0  0  0
   -3.6208    0.0000    0.0000 C   0  0  0  0  0  0  0  0  0  0  0  0
   -2.8458    0.4708    0.0000 C   0  0  0  0  0  0  0  0  0  0  0  0
    2.1000    3.2958    0.0000 C   0  0  0  0  0  0  0  0  0  0  0  0
  2 10  1  0  0  0  0
  3  1  1  0  0  0  0
  4  8  1  0  0  0  0
  5  3  1  0  0  0  0
  6  5  2  0  0  0  0
  7  4  2  0  0  0  0
  8  3  2  0  0  0  0
  9  4  1  0  0  0  0
 10 14  1  0  0  0  0
 11  9  2  0  0  0  0
 12  1  1  0  0  0  0
 13  1  2  0  0  0  0
 14 18  2  0  0  0  0
 15  2  1  0  0  0  0
 16  2  1  0  0  0  0
 17  2  1  0  0  0  0
 18 11  1  0  0  0  0
 19  7  1  0  0  0  0
 20  6  1  0  0  0  0
 21 22  1  0  0  0  0
 22 23  2  0  0  0  0
 23 18  1  0  0  0  0
 24 20  1  0  0  0  0
  7  6  1  0  0  0  0
 10 21  2  0  0  0  0
M  CHG  2   1   1  12  -1
M  END
> <#>
1098

> <PLATE>
LAT014

> <ROW>
B

> <COL>
9

> <COORD>
B09

> <LATID>
LAT014B09

> <Supplier>
Chembridge

> <Suplier_CAT#>
5281385

> <Name>
Novel

> <Concentration_(mM)>
2.5

> <IC50_(µM)>
54

> <Yeast_Active?>
-

> <Pubchem_CID>
NULL

$$$$
