
  -ISIS-  08130814242D

 17 18  0  0  0  0  0  0  0  0999 V2000
    4.5875   -1.8917    0.0000 S   0  0  3  0  0  0  0  0  0  0  0  0
    3.9417   -3.0167    0.0000 C   0  0  0  0  0  0  0  0  0  0  0  0
    4.5875   -2.6417    0.0000 N   0  0  0  0  0  0  0  0  0  0  0  0
    3.2917   -2.6417    0.0000 S   0  0  0  0  0  0  0  0  0  0  0  0
    3.7875   -3.7542    0.0000 N   0  0  0  0  0  0  0  0  0  0  0  0
    3.0375   -3.8292    0.0000 N   0  0  0  0  0  0  0  0  0  0  0  0
    2.7292   -3.1417    0.0000 C   0  0  0  0  0  0  0  0  0  0  0  0
    4.0042   -1.6000    0.0000 C   0  0  0  0  0  0  0  0  0  0  0  0
    5.0667   -2.0667    0.0000 O   0  0  0  0  0  0  0  0  0  0  0  0
    5.1292   -1.3500    0.0000 O   0  0  0  0  0  0  0  0  0  0  0  0
    4.0042   -0.8542    0.0000 C   0  0  0  0  0  0  0  0  0  0  0  0
    3.3500   -1.9750    0.0000 C   0  0  0  0  0  0  0  0  0  0  0  0
    2.7042   -0.8417    0.0000 C   0  0  0  0  0  0  0  0  0  0  0  0
    2.0542   -0.4667    0.0000 N   0  0  0  0  0  0  0  0  0  0  0  0
    2.7042   -1.5917    0.0000 C   0  0  0  0  0  0  0  0  0  0  0  0
    3.3542   -0.4750    0.0000 C   0  0  0  0  0  0  0  0  0  0  0  0
    1.9917   -2.9917    0.0000 C   0  0  0  0  0  0  0  0  0  0  0  0
  2  3  1  0  0  0  0
  3  1  1  0  0  0  0
  4  2  1  0  0  0  0
  5  2  2  0  0  0  0
  6  5  1  0  0  0  0
  7  4  1  0  0  0  0
  8  1  1  0  0  0  0
  9  1  2  0  0  0  0
 10  1  2  0  0  0  0
 11  8  1  0  0  0  0
 12  8  2  0  0  0  0
 13 15  2  0  0  0  0
 14 13  1  0  0  0  0
 15 12  1  0  0  0  0
 16 11  2  0  0  0  0
 17  7  1  0  0  0  0
 16 13  1  0  0  0  0
  7  6  2  0  0  0  0
M  END
> <#>
100

> <PLATE>
LAT002

> <ROW>
D

> <COL>
4

> <COORD>
D04

> <LATID>
LAT002D04

> <Supplier>
Microsource

> <Suplier_CAT#>
01500549

> <Name>
Sulfamethizole

> <Concentration_(mM)>
2.5

> <IC50_(µM)>
2.1

> <Yeast_Active?>
-

> <Pubchem_CID>
5328

> <Description>
Antibacterial

$$$$
