
  -ISIS-  08130814242D

 16 16  0  0  0  0  0  0  0  0999 V2000
    4.8781   -2.1116    0.0000 C   0  0  0  0  0  0  0  0  0  0  0  0
    4.8781   -0.8616    0.0000 C   0  0  0  0  0  0  0  0  0  0  0  0
    5.9606   -0.2366    0.0000 C   0  0  0  0  0  0  0  0  0  0  0  0
    7.0432   -0.8616    0.0000 C   0  0  0  0  0  0  0  0  0  0  0  0
    7.0432   -2.1116    0.0000 C   0  0  0  0  0  0  0  0  0  0  0  0
    5.9606   -2.7366    0.0000 C   0  0  0  0  0  0  0  0  0  0  0  0
    8.1257   -2.7366    0.0000 Cl  0  0  0  0  0  0  0  0  0  0  0  0
    5.9606    1.0134    0.0000 N   0  0  0  0  0  0  0  0  0  0  0  0
    4.8781    1.6384    0.0000 C   0  0  0  0  0  0  0  0  0  0  0  0
    4.8781    2.8884    0.0000 O   0  0  0  0  0  0  0  0  0  0  0  0
    3.7956    1.0134    0.0000 O   0  0  0  0  0  0  0  0  0  0  0  0
    2.7130    1.6384    0.0000 C   0  0  0  0  0  0  0  0  0  0  0  0
    1.6305    1.0134    0.0000 C   0  0  0  0  0  0  0  0  0  0  0  0
    0.5480    0.3884    0.0000 C   0  0  0  0  0  0  0  0  0  0  0  0
   -0.5346   -0.2366    0.0000 C   0  0  0  0  0  0  0  0  0  0  0  0
   -0.5346   -1.4866    0.0000 Cl  0  0  0  0  0  0  0  0  0  0  0  0
  1  2  2  0  0  0  0
  2  3  1  0  0  0  0
  3  4  2  0  0  0  0
  4  5  1  0  0  0  0
  5  6  2  0  0  0  0
  1  6  1  0  0  0  0
  5  7  1  0  0  0  0
  3  8  1  0  0  0  0
  8  9  1  0  0  0  0
  9 10  2  0  0  0  0
  9 11  1  0  0  0  0
 11 12  1  0  0  0  0
 12 13  1  0  0  0  0
 13 14  3  0  0  0  0
 14 15  1  0  0  0  0
 15 16  1  0  0  0  0
M  END
> <#>
377

> <PLATE>
LAT005

> <ROW>
A

> <COL>
9

> <COORD>
A09

> <LATID>
LAT005A09

> <Supplier>
Riedel-de Haen

> <Suplier_CAT#>
33390

> <Name>
Barban

> <Concentration_(mM)>
2.5

> <IC50_(µM)>
7.8

> <Yeast_Active?>
+

> <Pubchem_CID>
7551

> <Description>
Herbicide

$$$$
