
  -ISIS-  08130814242D

 19 20  0  0  0  0  0  0  0  0999 V2000
   -0.7000   -0.3792    0.0000 C   0  0  0  0  0  0  0  0  0  0  0  0
   -1.0833    0.3208    0.0000 N   0  0  0  0  0  0  0  0  0  0  0  0
   -1.8833    0.3208    0.0000 C   0  0  0  0  0  0  0  0  0  0  0  0
    0.1000   -0.3792    0.0000 C   0  0  0  0  0  0  0  0  0  0  0  0
   -2.2625   -0.3792    0.0000 C   0  0  0  0  0  0  0  0  0  0  0  0
   -3.0625    1.0000    0.0000 C   0  0  0  0  0  0  0  0  0  0  0  0
   -2.2625    1.0000    0.0000 C   0  0  0  0  0  0  0  0  0  0  0  0
   -3.0625   -0.3792    0.0000 C   0  0  0  0  0  0  0  0  0  0  0  0
   -3.4458    0.3208    0.0000 C   0  0  0  0  0  0  0  0  0  0  0  0
    0.6375   -0.9542    0.0000 S   0  0  0  0  0  0  0  0  0  0  0  0
    0.5000    0.3208    0.0000 C   0  0  0  0  0  0  0  0  0  0  0  0
   -1.0833   -1.0542    0.0000 O   0  0  0  0  0  0  0  0  0  0  0  0
    1.3542   -0.6375    0.0000 C   0  0  0  0  0  0  0  0  0  0  0  0
    1.2542    0.1458    0.0000 C   0  0  0  0  0  0  0  0  0  0  0  0
   -3.4708   -1.0375    0.0000 Cl  0  0  0  0  0  0  0  0  0  0  0  0
   -1.8625    1.6958    0.0000 O   0  0  0  0  0  0  0  0  0  0  0  0
   -4.2333    0.3333    0.0000 O   0  0  0  0  0  0  0  0  0  0  0  0
   -4.6000   -0.3792    0.0000 C   0  0  0  0  0  0  0  0  0  0  0  0
   -2.2500    2.3708    0.0000 C   0  0  0  0  0  0  0  0  0  0  0  0
  2  1  1  0  0  0  0
  3  2  1  0  0  0  0
  4  1  1  0  0  0  0
  5  3  1  0  0  0  0
  6  7  1  0  0  0  0
  7  3  2  0  0  0  0
  8  5  2  0  0  0  0
  9  6  2  0  0  0  0
 10  4  1  0  0  0  0
 11  4  2  0  0  0  0
 12  1  2  0  0  0  0
 13 10  1  0  0  0  0
 14 11  1  0  0  0  0
 15  8  1  0  0  0  0
 16  7  1  0  0  0  0
 17  9  1  0  0  0  0
 18 17  1  0  0  0  0
 19 16  1  0  0  0  0
 13 14  2  0  0  0  0
  9  8  1  0  0  0  0
M  END
> <#>
842

> <PLATE>
LAT011

> <ROW>
B

> <COL>
7

> <COORD>
B07

> <LATID>
LAT011B07

> <Supplier>
Chembridge

> <Suplier_CAT#>
5635643

> <Name>
Novel

> <Sec_Name>
194_A02

> <Concentration_(mM)>
2.5

> <IC50_(µM)>
27

> <Yeast_Active?>
-

> <Pubchem_CID>
767372

$$$$
