
  -ISIS-  08130814242D

 21 22  0  0  0  0  0  0  0  0999 V2000
    2.1000   -0.5792    0.0000 C   0  0  0  0  0  0  0  0  0  0  0  0
    1.0500   -2.3667    0.0000 C   0  0  0  0  0  0  0  0  0  0  0  0
    2.1000   -1.7667    0.0000 C   0  0  0  0  0  0  0  0  0  0  0  0
    1.0500    0.0000    0.0000 O   0  0  0  0  0  0  0  0  0  0  0  0
    0.0167   -0.5792    0.0000 C   0  0  0  0  0  0  0  0  0  0  0  0
    0.0167   -1.7667    0.0000 C   0  0  0  0  0  0  0  0  0  0  0  0
   -0.9958    0.0000    0.0000 C   0  0  0  0  0  0  0  0  0  0  0  0
   -0.9958   -2.3667    0.0000 C   0  0  0  0  0  0  0  0  0  0  0  0
   -4.1000    1.7958    0.0000 C   0  0  0  0  0  0  0  0  0  0  0  0
    3.1292    0.0000    0.0000 O   0  0  0  0  0  0  0  0  0  0  0  0
   -5.1125    1.2000    0.0000 O   0  0  0  0  0  0  0  0  0  0  0  0
   -2.0458   -0.5792    0.0000 C   0  0  0  0  0  0  0  0  0  0  0  0
   -3.0833    0.0000    0.0000 O   0  0  0  0  0  0  0  0  0  0  0  0
   -3.0833    1.2000    0.0000 C   0  0  0  0  0  0  0  0  0  0  0  0
   -2.0458   -1.7667    0.0000 C   0  0  0  0  0  0  0  0  0  0  0  0
    1.0500   -3.5542    0.0000 C   0  0  0  0  0  0  0  0  0  0  0  0
    3.1292   -2.3667    0.0000 C   0  0  0  0  0  0  0  0  0  0  0  0
   -4.1000    2.9833    0.0000 O   0  0  0  0  0  0  0  0  0  0  0  0
   -5.1125    3.5708    0.0000 C   0  0  0  0  0  0  0  0  0  0  0  0
    4.1500   -1.7667    0.0000 C   0  0  0  0  0  0  0  0  0  0  0  0
    5.2000   -2.3667    0.0000 C   0  0  0  0  0  0  0  0  0  0  0  0
  2  3  2  0  0  0  0
  3  1  1  0  0  0  0
  4  1  1  0  0  0  0
  5  4  1  0  0  0  0
  6  5  2  0  0  0  0
  7  5  1  0  0  0  0
  8  6  1  0  0  0  0
  9 14  1  0  0  0  0
 10  1  2  0  0  0  0
 11  9  2  0  0  0  0
 12  7  2  0  0  0  0
 13 12  1  0  0  0  0
 14 13  1  0  0  0  0
 15 12  1  0  0  0  0
 16  2  1  0  0  0  0
 17  3  1  0  0  0  0
 18  9  1  0  0  0  0
 19 18  1  0  0  0  0
 20 17  1  0  0  0  0
 21 20  1  0  0  0  0
  2  6  1  0  0  0  0
 15  8  2  0  0  0  0
M  END
> <#>
894

> <PLATE>
LAT012

> <ROW>
F

> <COL>
3

> <COORD>
F03

> <LATID>
LAT012F03

> <Supplier>
Chembridge

> <Suplier_CAT#>
5675753

> <Name>
Novel

> <Sec_Name>
213_G02

> <Concentration_(mM)>
2.5

> <IC50_(µM)>
75

> <Yeast_Active?>
-

> <Pubchem_CID>
721068

$$$$
