
  -ISIS-  08130814242D

 21 22  0  0  0  0  0  0  0  0999 V2000
    0.7792    0.1500    0.0000 C   0  0  0  0  0  0  0  0  0  0  0  0
    2.1917    0.1208    0.0000 N   0  0  0  0  0  0  0  0  0  0  0  0
    1.4875    0.5625    0.0000 N   0  0  0  0  0  0  0  0  0  0  0  0
    0.7792   -0.6792    0.0000 O   0  0  0  0  0  0  0  0  0  0  0  0
    0.0667    0.5500    0.0000 C   0  0  0  0  0  0  0  0  0  0  0  0
    2.9167    0.5333    0.0000 C   0  0  0  0  0  0  0  0  0  0  0  0
   -0.6625    0.1833    0.0000 O   0  0  0  0  0  0  0  0  0  0  0  0
   -1.3833    0.5833    0.0000 C   0  0  0  0  0  0  0  0  0  0  0  0
    3.6292    0.1208    0.0000 C   0  0  0  0  0  0  0  0  0  0  0  0
    5.0667   -0.7000    0.0000 C   0  0  0  0  0  0  0  0  0  0  0  0
   -2.7625    1.4625    0.0000 C   0  0  0  0  0  0  0  0  0  0  0  0
   -3.4958    1.9125    0.0000 F   0  0  0  0  0  0  0  0  0  0  0  0
    5.8167   -1.1042    0.0000 Cl  0  0  0  0  0  0  0  0  0  0  0  0
   -1.3625    1.4125    0.0000 C   0  0  0  0  0  0  0  0  0  0  0  0
   -2.1333    0.2125    0.0000 C   0  0  0  0  0  0  0  0  0  0  0  0
    5.0500    0.1125    0.0000 C   0  0  0  0  0  0  0  0  0  0  0  0
   -2.0500    1.8500    0.0000 C   0  0  0  0  0  0  0  0  0  0  0  0
   -2.8000    0.6458    0.0000 C   0  0  0  0  0  0  0  0  0  0  0  0
    4.3542   -1.1292    0.0000 C   0  0  0  0  0  0  0  0  0  0  0  0
    4.3375    0.5333    0.0000 C   0  0  0  0  0  0  0  0  0  0  0  0
    3.6375   -0.7042    0.0000 C   0  0  0  0  0  0  0  0  0  0  0  0
  2  3  1  0  0  0  0
  3  1  1  0  0  0  0
  4  1  2  0  0  0  0
  5  1  1  0  0  0  0
  6  2  2  0  0  0  0
  7  5  1  0  0  0  0
  8  7  1  0  0  0  0
  9  6  1  0  0  0  0
 10 19  1  0  0  0  0
 11 18  1  0  0  0  0
 12 11  1  0  0  0  0
 13 10  1  0  0  0  0
 14  8  2  0  0  0  0
 15  8  1  0  0  0  0
 16 20  1  0  0  0  0
 17 14  1  0  0  0  0
 18 15  2  0  0  0  0
 19 21  2  0  0  0  0
 20  9  2  0  0  0  0
 21  9  1  0  0  0  0
 17 11  2  0  0  0  0
 10 16  2  0  0  0  0
M  END
> <#>
730

> <PLATE>
LAT010

> <ROW>
B

> <COL>
3

> <COORD>
B03

> <LATID>
LAT010B03

> <Supplier>
Chembridge

> <Suplier_CAT#>
5567719

> <Name>
Novel

> <Sec_Name>
173_F04

> <Concentration_(mM)>
2.5

> <IC50_(µM)>
0.72

> <Yeast_Active?>
-

> <Pubchem_CID>
867472

$$$$
