
  -ISIS-  08130814242D

 21 22  0  0  0  0  0  0  0  0999 V2000
    1.6792    2.1333    0.0000 C   0  0  0  0  0  0  0  0  0  0  0  0
    1.0042    1.7625    0.0000 C   0  0  0  0  0  0  0  0  0  0  0  0
    0.3500    2.1333    0.0000 C   0  0  0  0  0  0  0  0  0  0  0  0
    1.6792    2.9125    0.0000 C   0  0  0  0  0  0  0  0  0  0  0  0
   -0.3000    1.7458    0.0000 C   0  0  0  0  0  0  0  0  0  0  0  0
   -1.2708    1.7958    0.0000 N   0  0  0  0  0  0  0  0  0  0  0  0
    0.3500    2.9125    0.0000 C   0  0  0  0  0  0  0  0  0  0  0  0
    1.0042    3.3000    0.0000 C   0  0  0  0  0  0  0  0  0  0  0  0
    2.3667    1.7625    0.0000 O   0  0  0  0  0  0  0  0  0  0  0  0
   -1.9708    1.3958    0.0000 C   0  0  0  0  0  0  0  0  0  0  0  0
    1.0042    0.9625    0.0000 O   0  0  0  0  0  0  0  0  0  0  0  0
   -3.3458    0.6000    0.0000 C   0  0  0  0  0  0  0  0  0  0  0  0
   -4.0208    0.2208    0.0000 Br  0  0  0  0  0  0  0  0  0  0  0  0
    2.3500    3.3000    0.0000 O   0  0  0  0  0  0  0  0  0  0  0  0
   -1.9708    0.6000    0.0000 C   0  0  0  0  0  0  0  0  0  0  0  0
   -2.6500    1.7708    0.0000 C   0  0  0  0  0  0  0  0  0  0  0  0
   -2.6500    0.2000    0.0000 C   0  0  0  0  0  0  0  0  0  0  0  0
   -3.3458    1.3958    0.0000 C   0  0  0  0  0  0  0  0  0  0  0  0
    2.3667    1.0000    0.0000 C   0  0  0  0  0  0  0  0  0  0  0  0
    0.3542    0.5958    0.0000 C   0  0  0  0  0  0  0  0  0  0  0  0
    3.0000    2.9333    0.0000 C   0  0  0  0  0  0  0  0  0  0  0  0
  2  1  2  0  0  0  0
  3  2  1  0  0  0  0
  4  1  1  0  0  0  0
  5  3  1  0  0  0  0
  6  5  1  0  0  0  0
  7  8  1  0  0  0  0
  8  4  2  0  0  0  0
  9  1  1  0  0  0  0
 10  6  1  0  0  0  0
 11  2  1  0  0  0  0
 12 18  2  0  0  0  0
 13 12  1  0  0  0  0
 14  4  1  0  0  0  0
 15 10  1  0  0  0  0
 16 10  2  0  0  0  0
 17 15  2  0  0  0  0
 18 16  1  0  0  0  0
 19  9  1  0  0  0  0
 20 11  1  0  0  0  0
 21 14  1  0  0  0  0
  3  7  2  0  0  0  0
 12 17  1  0  0  0  0
M  END
> <#>
612

> <PLATE>
LAT008

> <ROW>
D

> <COL>
8

> <COORD>
D08

> <LATID>
LAT008D08

> <Supplier>
Chembridge

> <Suplier_CAT#>
5533374

> <Name>
Novel

> <Sec_Name>
155_A04

> <Concentration_(mM)>
2.5

> <IC50_(µM)>
>100

> <Yeast_Active?>
-

> <Pubchem_CID>
1115719

$$$$
