
  -ISIS-  08130814242D

 24 27  0  0  0  0  0  0  0  0999 V2000
   -0.8625   -0.0875    0.0000 C   0  0  0  0  0  0  0  0  0  0  0  0
    0.4542   -0.0875    0.0000 C   0  0  0  0  0  0  0  0  0  0  0  0
   -1.5000   -1.2042    0.0000 C   0  0  0  0  0  0  0  0  0  0  0  0
   -1.5208    1.0500    0.0000 C   0  0  0  0  0  0  0  0  0  0  0  0
    1.1000   -1.2042    0.0000 C   0  0  0  0  0  0  0  0  0  0  0  0
   -2.8208    1.0333    0.0000 N   0  0  0  0  0  0  0  0  0  0  0  0
    1.1000    1.0500    0.0000 C   0  0  0  0  0  0  0  0  0  0  0  0
   -2.8000   -1.2292    0.0000 C   0  0  0  0  0  0  0  0  0  0  0  0
    2.4000   -1.1875    0.0000 O   0  0  0  0  0  0  0  0  0  0  0  0
   -3.4625   -0.1042    0.0000 C   0  0  0  0  0  0  0  0  0  0  0  0
    2.4000    1.0708    0.0000 C   0  0  0  0  0  0  0  0  0  0  0  0
    3.0542   -0.0667    0.0000 C   0  0  0  0  0  0  0  0  0  0  0  0
   -0.8625    2.1958    0.0000 O   0  0  0  0  0  0  0  0  0  0  0  0
    0.4375   -2.3500    0.0000 O   0  0  0  0  0  0  0  0  0  0  0  0
    3.0375    2.1958    0.0000 C   0  0  0  0  0  0  0  0  0  0  0  0
   -0.8208   -2.3500    0.0000 O   0  0  0  0  0  0  0  0  0  0  0  0
    4.3542   -0.0667    0.0000 C   0  0  0  0  0  0  0  0  0  0  0  0
    4.3375    2.2125    0.0000 C   0  0  0  0  0  0  0  0  0  0  0  0
    5.0000    1.0708    0.0000 C   0  0  0  0  0  0  0  0  0  0  0  0
    4.9792    3.3708    0.0000 Br  0  0  0  0  0  0  0  0  0  0  0  0
   -3.4458   -2.3500    0.0000 C   0  0  0  0  0  0  0  0  0  0  0  0
   -4.7708   -0.1042    0.0000 C   0  0  0  0  0  0  0  0  0  0  0  0
   -4.7458   -2.3667    0.0000 C   0  0  0  0  0  0  0  0  0  0  0  0
   -5.4083   -1.2292    0.0000 C   0  0  0  0  0  0  0  0  0  0  0  0
  2  1  1  0  0  0  0
  3  1  2  0  0  0  0
  4  1  1  0  0  0  0
  5  2  1  0  0  0  0
  6  4  1  0  0  0  0
  7  2  2  0  0  0  0
  8  3  1  0  0  0  0
  9  5  1  0  0  0  0
 10  6  1  0  0  0  0
 11  7  1  0  0  0  0
 12 11  2  0  0  0  0
 13  4  2  0  0  0  0
 14  5  2  0  0  0  0
 15 11  1  0  0  0  0
 16  3  1  0  0  0  0
 17 12  1  0  0  0  0
 18 15  2  0  0  0  0
 19 18  1  0  0  0  0
 20 18  1  0  0  0  0
 21  8  1  0  0  0  0
 22 10  1  0  0  0  0
 23 21  2  0  0  0  0
 24 22  2  0  0  0  0
  8 10  2  0  0  0  0
 12  9  1  0  0  0  0
 23 24  1  0  0  0  0
 19 17  2  0  0  0  0
M  END
> <#>
946

> <PLATE>
LAT012

> <ROW>
B

> <COL>
10

> <COORD>
B10

> <LATID>
LAT012B10

> <Supplier>
Chembridge

> <Suplier_CAT#>
5728394

> <Name>
Chromoxyquin

> <Sec_Name>
231_C07

> <Concentration_(mM)>
2.5

> <IC50_(µM)>
4.5

> <Yeast_Active?>
-

> <Pubchem_CID>
NULL

$$$$
