
  -ISIS-  08130814242D

 22 24  0  0  0  0  0  0  0  0999 V2000
   -0.2125    0.3208    0.0000 C   0  0  3  0  0  0  0  0  0  0  0  0
    0.2042    0.5833    0.0000 C   0  0  0  0  0  0  0  0  0  0  0  0
   -0.4208   -0.1167    0.0000 C   0  0  0  0  0  0  0  0  0  0  0  0
   -0.6708    0.3458    0.0000 C   0  0  0  0  0  0  0  0  0  0  0  0
    1.0500    0.5958    0.0000 N   0  0  0  0  0  0  0  0  0  0  0  0
    0.6375    0.3500    0.0000 N   0  0  0  0  0  0  0  0  0  0  0  0
    0.2042    1.0833    0.0000 O   0  0  0  0  0  0  0  0  0  0  0  0
    1.5000    0.3458    0.0000 C   0  0  0  0  0  0  0  0  0  0  0  0
    3.2500    0.2958    0.0000 O   0  0  0  0  0  0  0  0  0  0  0  0
    2.8042    0.5833    0.0000 C   0  0  0  0  0  0  0  0  0  0  0  0
    2.3542    0.3500    0.0000 C   0  0  0  0  0  0  0  0  0  0  0  0
    1.9542    0.6000    0.0000 C   0  0  0  0  0  0  0  0  0  0  0  0
    3.1875   -0.2000    0.0000 C   0  0  0  0  0  0  0  0  0  0  0  0
    3.6000   -0.4875    0.0000 C   0  0  0  0  0  0  0  0  0  0  0  0
    2.4042    1.3333    0.0000 C   0  0  0  0  0  0  0  0  0  0  0  0
    2.8042    1.0833    0.0000 C   0  0  0  0  0  0  0  0  0  0  0  0
    1.9542    1.1000    0.0000 C   0  0  0  0  0  0  0  0  0  0  0  0
    3.5500   -0.9875    0.0000 C   0  0  0  0  0  0  0  0  0  0  0  0
    4.0542   -0.2667    0.0000 C   0  0  0  0  0  0  0  0  0  0  0  0
    4.4667   -0.5542    0.0000 C   0  0  0  0  0  0  0  0  0  0  0  0
    3.9542   -1.2667    0.0000 C   0  0  0  0  0  0  0  0  0  0  0  0
    4.4167   -1.0875    0.0000 C   0  0  0  0  0  0  0  0  0  0  0  0
  2  1  1  0  0  0  0
  3  1  1  0  0  0  0
  4  1  1  0  0  0  0
  5  6  1  0  0  0  0
  6  2  1  0  0  0  0
  7  2  2  0  0  0  0
  8  5  2  0  0  0  0
  9 10  1  0  0  0  0
 10 11  2  0  0  0  0
 11 12  1  0  0  0  0
 12  8  1  0  0  0  0
 13  9  1  0  0  0  0
 14 13  1  0  0  0  0
 15 17  1  0  0  0  0
 16 15  2  0  0  0  0
 17 12  2  0  0  0  0
 18 14  1  0  0  0  0
 19 14  2  0  0  0  0
 20 19  1  0  0  0  0
 21 18  2  0  0  0  0
 22 20  2  0  0  0  0
  3  4  1  0  0  0  0
 16 10  1  0  0  0  0
 22 21  1  0  0  0  0
M  END
> <#>
606

> <PLATE>
LAT008

> <ROW>
F

> <COL>
7

> <COORD>
F07

> <LATID>
LAT008F07

> <Supplier>
Chembridge

> <Suplier_CAT#>
5522619

> <Name>
Novel

> <Sec_Name>
145_F04

> <Concentration_(mM)>
2.5

> <IC50_(µM)>
inactive

> <Yeast_Active?>
-

> <Pubchem_CID>
870830

$$$$
