
  -ISIS-  08130814242D

 30 33  0  0  0  0  0  0  0  0999 V2000
   -0.9333   -0.5292    0.0000 C   0  0  0  0  0  0  0  0  0  0  0  0
   -1.8458   -0.5292    0.0000 C   0  0  0  0  0  0  0  0  0  0  0  0
    0.0042   -0.5292    0.0000 C   0  0  3  0  0  0  0  0  0  0  0  0
   -2.7833   -0.5042    0.0000 C   0  0  3  0  0  0  0  0  0  0  0  0
    0.0042   -1.4542    0.0000 C   0  0  0  0  0  0  0  0  0  0  0  0
    0.0292    0.3958    0.0000 C   0  0  0  0  0  0  0  0  0  0  0  0
   -2.8000   -1.4292    0.0000 C   0  0  0  0  0  0  0  0  0  0  0  0
   -2.7833    0.4208    0.0000 C   0  0  0  0  0  0  0  0  0  0  0  0
    0.9292   -0.5292    0.0000 O   0  0  0  0  0  0  0  0  0  0  0  0
   -3.7000   -0.5042    0.0000 O   0  0  0  0  0  0  0  0  0  0  0  0
    0.8042   -1.9292    0.0000 C   0  0  0  0  0  0  0  0  0  0  0  0
   -3.6000   -1.8875    0.0000 C   0  0  0  0  0  0  0  0  0  0  0  0
   -2.0000   -1.9000    0.0000 C   0  0  0  0  0  0  0  0  0  0  0  0
    0.8042    0.8458    0.0000 C   0  0  0  0  0  0  0  0  0  0  0  0
   -1.9708    0.8625    0.0000 C   0  0  0  0  0  0  0  0  0  0  0  0
   -3.5833    0.8833    0.0000 C   0  0  0  0  0  0  0  0  0  0  0  0
   -0.7625    0.8458    0.0000 C   0  0  0  0  0  0  0  0  0  0  0  0
   -0.8208   -1.9042    0.0000 C   0  0  0  0  0  0  0  0  0  0  0  0
   -0.8000   -2.8292    0.0000 C   0  0  0  0  0  0  0  0  0  0  0  0
    0.8042   -2.8500    0.0000 C   0  0  0  0  0  0  0  0  0  0  0  0
    0.8167    1.7500    0.0000 C   0  0  0  0  0  0  0  0  0  0  0  0
   -1.9708    1.7708    0.0000 C   0  0  0  0  0  0  0  0  0  0  0  0
   -3.5708    1.7958    0.0000 C   0  0  0  0  0  0  0  0  0  0  0  0
   -0.7500    1.7500    0.0000 C   0  0  0  0  0  0  0  0  0  0  0  0
   -3.5958   -2.7875    0.0000 C   0  0  0  0  0  0  0  0  0  0  0  0
   -2.0000   -2.8292    0.0000 C   0  0  0  0  0  0  0  0  0  0  0  0
   -2.7833   -3.2792    0.0000 C   0  0  0  0  0  0  0  0  0  0  0  0
    0.0292    2.2083    0.0000 C   0  0  0  0  0  0  0  0  0  0  0  0
    0.0042   -3.3042    0.0000 C   0  0  0  0  0  0  0  0  0  0  0  0
   -2.7708    2.2500    0.0000 C   0  0  0  0  0  0  0  0  0  0  0  0
  2  1  3  0  0  0  0
  3  1  1  0  0  0  0
  4  2  1  0  0  0  0
  5  3  1  0  0  0  0
  6  3  1  0  0  0  0
  7  4  1  0  0  0  0
  8  4  1  0  0  0  0
  9  3  1  0  0  0  0
 10  4  1  0  0  0  0
 11  5  1  0  0  0  0
 12  7  2  0  0  0  0
 13  7  1  0  0  0  0
 14  6  2  0  0  0  0
 15  8  2  0  0  0  0
 16  8  1  0  0  0  0
 17  6  1  0  0  0  0
 18  5  2  0  0  0  0
 19 18  1  0  0  0  0
 20 11  2  0  0  0  0
 21 14  1  0  0  0  0
 22 15  1  0  0  0  0
 23 16  2  0  0  0  0
 24 17  2  0  0  0  0
 25 12  1  0  0  0  0
 26 13  2  0  0  0  0
 27 26  1  0  0  0  0
 28 24  1  0  0  0  0
 29 19  2  0  0  0  0
 30 23  1  0  0  0  0
 28 21  2  0  0  0  0
 20 29  1  0  0  0  0
 30 22  2  0  0  0  0
 27 25  2  0  0  0  0
M  END
> <#>
998

> <PLATE>
LAT013

> <ROW>
F

> <COL>
6

> <COORD>
F06

> <LATID>
LAT013F06

> <Supplier>
Chembridge

> <Suplier_CAT#>
5478404

> <Name>
Novel

> <Sec_Name>
140_G08

> <Concentration_(mM)>
2.5

> <IC50_(µM)>
inactive

> <Yeast_Active?>
-

> <Pubchem_CID>
380898

$$$$
