
  -ISIS-  08130814242D

 20 22  0  0  0  0  0  0  0  0999 V2000
   -0.8333    0.7000    0.0000 C   0  0  0  0  0  0  0  0  0  0  0  0
   -0.4125    0.0958    0.0000 C   0  0  0  0  0  0  0  0  0  0  0  0
   -0.3708    1.3000    0.0000 C   0  0  0  0  0  0  0  0  0  0  0  0
    0.3292    0.2708    0.0000 N   0  0  0  0  0  0  0  0  0  0  0  0
   -1.6000    0.7125    0.0000 C   0  0  0  0  0  0  0  0  0  0  0  0
   -4.3625   -0.0292    0.0000 S   0  0  0  0  0  0  0  0  0  0  0  0
   -3.8625   -0.5792    0.0000 C   0  0  0  0  0  0  0  0  0  0  0  0
   -5.0625   -0.3292    0.0000 C   0  0  0  0  0  0  0  0  0  0  0  0
    0.3500    1.0333    0.0000 C   0  0  0  0  0  0  0  0  0  0  0  0
   -2.7208    0.0500    0.0000 N   0  0  0  0  0  0  0  0  0  0  0  0
   -4.2333   -1.2375    0.0000 C   0  0  0  0  0  0  0  0  0  0  0  0
   -4.9958   -1.0667    0.0000 C   0  0  0  0  0  0  0  0  0  0  0  0
   -3.1000   -0.5792    0.0000 C   0  0  0  0  0  0  0  0  0  0  0  0
   -1.9708    0.0500    0.0000 N   0  0  0  0  0  0  0  0  0  0  0  0
   -1.9833    1.3625    0.0000 O   0  0  0  0  0  0  0  0  0  0  0  0
   -0.4833    2.0333    0.0000 C   0  0  0  0  0  0  0  0  0  0  0  0
   -5.7208    0.0208    0.0000 C   0  0  0  0  0  0  0  0  0  0  0  0
    0.9375    1.5000    0.0000 C   0  0  0  0  0  0  0  0  0  0  0  0
    0.0792    2.5208    0.0000 C   0  0  0  0  0  0  0  0  0  0  0  0
    0.8000    2.2458    0.0000 C   0  0  0  0  0  0  0  0  0  0  0  0
  2  1  2  0  0  0  0
  3  1  1  0  0  0  0
  4  2  1  0  0  0  0
  5  1  1  0  0  0  0
  6  7  1  0  0  0  0
  7 13  1  0  0  0  0
  8  6  1  0  0  0  0
  9  3  2  0  0  0  0
 10 14  1  0  0  0  0
 11  7  2  0  0  0  0
 12 11  1  0  0  0  0
 13 10  2  0  0  0  0
 14  5  1  0  0  0  0
 15  5  2  0  0  0  0
 16  3  1  0  0  0  0
 17  8  1  0  0  0  0
 18  9  1  0  0  0  0
 19 16  2  0  0  0  0
 20 19  1  0  0  0  0
  9  4  1  0  0  0  0
 20 18  2  0  0  0  0
  8 12  2  0  0  0  0
M  END
> <#>
908

> <PLATE>
LAT012

> <ROW>
D

> <COL>
5

> <COORD>
D05

> <LATID>
LAT012D05

> <Supplier>
Chembridge

> <Suplier_CAT#>
5686294

> <Name>
Novel

> <Sec_Name>
218_D07

> <Concentration_(mM)>
2.5

> <IC50_(µM)>
50

> <Yeast_Active?>
-

> <Pubchem_CID>
NULL

$$$$
