
  -ISIS-  08130814242D

 18 18  0  0  0  0  0  0  0  0999 V2000
    5.8954   -5.9607    0.0000 O   0  0  0  0  0  0  0  0  0  0  0  0
    4.0927   -5.9637    0.0000 O   0  0  0  0  0  0  0  0  0  0  0  0
    4.9789   -4.0253    0.0000 O   0  0  0  0  0  0  0  0  0  0  0  0
    3.0363   -4.9228    0.0000 O   0  0  0  0  0  0  0  0  0  0  0  0
    5.6532   -4.5238    0.0000 C   0  0  2  0  0  0  0  0  0  0  0  0
    5.4094   -5.2951    0.0000 C   0  0  2  0  0  0  0  0  0  0  0  0
    4.5773   -5.2951    0.0000 C   0  0  1  0  0  0  0  0  0  0  0  0
    4.3101   -4.5128    0.0000 C   0  0  1  0  0  0  0  0  0  0  0  0
    3.5327   -4.2670    0.0000 C   0  0  0  0  0  0  0  0  0  0  0  0
    6.1479   -3.5831    0.0000 N   0  0  3  0  0  0  0  0  0  0  0  0
    6.8565   -3.1683    0.0000 C   0  0  0  0  0  0  0  0  0  0  0  0
    5.4354   -3.1724    0.0000 C   0  0  0  0  0  0  0  0  0  0  0  0
    6.8565   -2.3418    0.0000 N   0  0  0  0  0  0  0  0  0  0  0  0
    7.5730   -3.5789    0.0000 O   0  0  0  0  0  0  0  0  0  0  0  0
    5.4354   -2.3460    0.0000 C   0  0  0  0  0  0  0  0  0  0  0  0
    6.1403   -1.9352    0.0000 C   0  0  0  0  0  0  0  0  0  0  0  0
    6.1403   -1.1128    0.0000 N   0  0  0  0  0  0  0  0  0  0  0  0
    8.3667   -5.4208    0.0000 Cl  0  0  0  0  0  0  0  0  0  0  0  0
  6  1  1  1  0  0  0
  7  2  1  6  0  0  0
  8  3  1  0  0  0  0
  8  7  1  0  0  0  0
  3  5  1  0  0  0  0
  7  6  1  0  0  0  0
  5  6  1  0  0  0  0
  8  9  1  1  0  0  0
 10 11  1  0  0  0  0
 10 12  1  0  0  0  0
 11 13  1  0  0  0  0
 11 14  2  0  0  0  0
 12 15  2  0  0  0  0
 13 16  2  0  0  0  0
 16 17  1  0  0  0  0
 15 16  1  0  0  0  0
  5 10  1  1  0  0  0
  9  4  1  0  0  0  0
M  END
> <#>
213

> <PLATE>
LAT003

> <ROW>
E

> <COL>
8

> <COORD>
E08

> <LATID>
LAT003E08

> <Supplier>
Sigma

> <Suplier_CAT#>
C 6645

> <Name>
Cytosine-1-Beta-D-Arabinofuranoside Hydrochloride

> <Concentration_(mM)>
2.5

> <IC50_(µM)>
23

> <Yeast_Active?>
-

> <Pubchem_CID>
116482

> <Description>
DNA synthesis inhibitor

$$$$
