
  -ISIS-  08130814242D

 11 11  0  0  0  0  0  0  0  0999 V2000
    5.2457   -3.6723    0.0000 C   0  0  0  0  0  0  0  0  0  0  0  0
    6.1380   -3.6723    0.0000 C   0  0  0  0  0  0  0  0  0  0  0  0
    6.5842   -2.8996    0.0000 C   0  0  0  0  0  0  0  0  0  0  0  0
    7.4765   -2.8996    0.0000 C   0  0  0  0  0  0  0  0  0  0  0  0
    7.9227   -3.6723    0.0000 C   0  0  0  0  0  0  0  0  0  0  0  0
    7.4765   -4.4451    0.0000 C   0  0  0  0  0  0  0  0  0  0  0  0
    6.5842   -4.4451    0.0000 C   0  0  0  0  0  0  0  0  0  0  0  0
    4.7995   -4.4451    0.0000 O   0  0  0  0  0  0  0  0  0  0  0  0
    4.7995   -2.8996    0.0000 O   0  0  0  0  0  0  0  0  0  0  0  0
    8.8150   -3.6723    0.0000 F   0  0  0  0  0  0  0  0  0  0  0  0
    6.1380   -2.1268    0.0000 F   0  0  0  0  0  0  0  0  0  0  0  0
  1  2  1  0  0  0  0
  2  3  1  0  0  0  0
  3  4  2  0  0  0  0
  4  5  1  0  0  0  0
  5  6  2  0  0  0  0
  6  7  1  0  0  0  0
  2  7  2  0  0  0  0
  1  8  2  0  0  0  0
  1  9  1  0  0  0  0
  5 10  1  0  0  0  0
  3 11  1  0  0  0  0
M  END
> <#>
492

> <PLATE>
LAT007

> <ROW>
D

> <COL>
3

> <COORD>
D03

> <LATID>
LAT007D03

> <Supplier>
Aldrich

> <Suplier_CAT#>
264296

> <Name>
2,4-Difluorobenzoic Acid

> <Concentration_(mM)>
2.5

> <IC50_(µM)>
inactive

> <Yeast_Active?>
-

> <Pubchem_CID>
74102

$$$$
