
  -ISIS-  08130814242D

 23 24  0  0  0  0  0  0  0  0999 V2000
    4.0875   -1.3542    0.0000 S   0  0  3  0  0  0  0  0  0  0  0  0
    7.7917   -2.0917    0.0000 N   0  3  0  0  0  0  0  0  0  0  0  0
    4.5000   -2.0750    0.0000 N   0  0  0  0  0  0  0  0  0  0  0  0
    3.2625   -1.3542    0.0000 C   0  0  0  0  0  0  0  0  0  0  0  0
    6.9667   -2.0875    0.0000 C   0  0  0  0  0  0  0  0  0  0  0  0
    3.8667   -0.5542    0.0000 O   0  0  0  0  0  0  0  0  0  0  0  0
    4.8792   -1.1417    0.0000 O   0  0  0  0  0  0  0  0  0  0  0  0
    8.2042   -2.8000    0.0000 O   0  5  0  0  0  0  0  0  0  0  0  0
    0.3750   -0.6417    0.0000 C   0  0  0  0  0  0  0  0  0  0  0  0
    8.2125   -1.3750    0.0000 O   0  0  0  0  0  0  0  0  0  0  0  0
    0.7875   -1.3542    0.0000 N   0  0  0  0  0  0  0  0  0  0  0  0
    0.7792    0.0708    0.0000 O   0  0  0  0  0  0  0  0  0  0  0  0
    2.8542   -2.0667    0.0000 C   0  0  0  0  0  0  0  0  0  0  0  0
    2.8542   -0.6417    0.0000 C   0  0  0  0  0  0  0  0  0  0  0  0
    5.3250   -2.0750    0.0000 C   0  0  0  0  0  0  0  0  0  0  0  0
    6.5542   -2.7917    0.0000 C   0  0  0  0  0  0  0  0  0  0  0  0
    6.5625   -1.3667    0.0000 C   0  0  0  0  0  0  0  0  0  0  0  0
    1.6125   -1.3542    0.0000 C   0  0  0  0  0  0  0  0  0  0  0  0
    5.7292   -1.3625    0.0000 C   0  0  0  0  0  0  0  0  0  0  0  0
    5.7292   -2.7917    0.0000 C   0  0  0  0  0  0  0  0  0  0  0  0
    2.0292   -2.0667    0.0000 C   0  0  0  0  0  0  0  0  0  0  0  0
    2.0292   -0.6417    0.0000 C   0  0  0  0  0  0  0  0  0  0  0  0
   -0.4500   -0.6417    0.0000 C   0  0  0  0  0  0  0  0  0  0  0  0
  2  5  1  0  0  0  0
  3  1  1  0  0  0  0
  4  1  1  0  0  0  0
  5 16  2  0  0  0  0
  6  1  2  0  0  0  0
  7  1  2  0  0  0  0
  8  2  1  0  0  0  0
  9 11  1  0  0  0  0
 10  2  2  0  0  0  0
 11 18  1  0  0  0  0
 12  9  2  0  0  0  0
 13  4  1  0  0  0  0
 14  4  2  0  0  0  0
 15  3  1  0  0  0  0
 16 20  1  0  0  0  0
 17 19  2  0  0  0  0
 18 22  2  0  0  0  0
 19 15  1  0  0  0  0
 20 15  2  0  0  0  0
 21 13  2  0  0  0  0
 22 14  1  0  0  0  0
 23  9  1  0  0  0  0
 18 21  1  0  0  0  0
  5 17  1  0  0  0  0
M  CHG  2   2   1   8  -1
M  END
> <#>
138

> <PLATE>
LAT002

> <ROW>
B

> <COL>
9

> <COORD>
B09

> <LATID>
LAT002B09

> <Supplier>
Microsource

> <Suplier_CAT#>
01503339

> <Name>
Sulfanitran

> <Concentration_(mM)>
2.5

> <IC50_(µM)>
23

> <Yeast_Active?>
-

> <Pubchem_CID>
5334

> <Description>
Antibacterial

$$$$
