
  -ISIS-  08130814242D

 21 24  0  0  0  0  0  0  0  0999 V2000
   -3.7125    2.1458    0.0000 C   0  0  0  0  0  0  0  0  0  0  0  0
   -4.0333    2.5833    0.0000 N   0  0  0  0  0  0  0  0  0  0  0  0
   -1.9958    1.9833    0.0000 N   0  0  0  0  0  0  0  0  0  0  0  0
   -4.0333    1.7208    0.0000 N   0  0  0  0  0  0  0  0  0  0  0  0
   -2.3708    1.6000    0.0000 C   0  0  0  0  0  0  0  0  0  0  0  0
   -2.1333    1.1208    0.0000 N   0  0  0  0  0  0  0  0  0  0  0  0
   -4.5500    2.4208    0.0000 C   0  0  0  0  0  0  0  0  0  0  0  0
   -4.5500    1.8833    0.0000 C   0  0  0  0  0  0  0  0  0  0  0  0
   -1.5125    1.7208    0.0000 C   0  0  0  0  0  0  0  0  0  0  0  0
   -1.5958    1.2000    0.0000 C   0  0  0  0  0  0  0  0  0  0  0  0
   -5.0208    2.7083    0.0000 C   0  0  0  0  0  0  0  0  0  0  0  0
   -3.1708    2.1000    0.0000 S   0  0  0  0  0  0  0  0  0  0  0  0
   -5.0208    1.6000    0.0000 C   0  0  0  0  0  0  0  0  0  0  0  0
   -2.9125    1.6208    0.0000 C   0  0  0  0  0  0  0  0  0  0  0  0
   -5.4958    2.4208    0.0000 C   0  0  0  0  0  0  0  0  0  0  0  0
   -5.4958    1.8833    0.0000 C   0  0  0  0  0  0  0  0  0  0  0  0
   -5.9708    2.7083    0.0000 Br  0  0  0  0  0  0  0  0  0  0  0  0
   -0.9958    1.9208    0.0000 C   0  0  0  0  0  0  0  0  0  0  0  0
   -1.1708    0.8625    0.0000 C   0  0  0  0  0  0  0  0  0  0  0  0
   -0.6708    1.0625    0.0000 C   0  0  0  0  0  0  0  0  0  0  0  0
   -0.5708    1.5833    0.0000 C   0  0  0  0  0  0  0  0  0  0  0  0
  2  1  2  0  0  0  0
  3  5  2  0  0  0  0
  4  1  1  0  0  0  0
  5 14  1  0  0  0  0
  6  5  1  0  0  0  0
  7  2  1  0  0  0  0
  8  4  1  0  0  0  0
  9  3  1  0  0  0  0
 10  6  1  0  0  0  0
 11  7  1  0  0  0  0
 12  1  1  0  0  0  0
 13  8  1  0  0  0  0
 14 12  1  0  0  0  0
 15 11  2  0  0  0  0
 16 13  2  0  0  0  0
 17 15  1  0  0  0  0
 18  9  1  0  0  0  0
 19 10  1  0  0  0  0
 20 19  2  0  0  0  0
 21 18  2  0  0  0  0
  8  7  2  0  0  0  0
 15 16  1  0  0  0  0
 10  9  2  0  0  0  0
 20 21  1  0  0  0  0
M  END
> <#>
873

> <PLATE>
LAT011

> <ROW>
A

> <COL>
11

> <COORD>
A11

> <LATID>
LAT011A11

> <Supplier>
Chembridge

> <Suplier_CAT#>
5669530

> <Name>
Novel

> <Sec_Name>
211_D02

> <Concentration_(mM)>
2.5

> <IC50_(µM)>
25

> <Yeast_Active?>
-

> <Pubchem_CID>
NULL

$$$$
