
  -ISIS-  08130814242D

 16 17  0  0  0  0  0  0  0  0999 V2000
    9.2272   -4.3011    0.0000 C   0  0  0  0  0  0  0  0  0  0  0  0
    8.6022   -3.2186    0.0000 C   0  0  0  0  0  0  0  0  0  0  0  0
    7.3522   -3.2186    0.0000 C   0  0  0  0  0  0  0  0  0  0  0  0
    6.7272   -4.3011    0.0000 N   0  0  0  0  0  0  0  0  0  0  0  0
    6.7272   -2.1360    0.0000 C   0  0  0  0  0  0  0  0  0  0  0  0
    7.3522   -1.0535    0.0000 C   0  0  0  0  0  0  0  0  0  0  0  0
    8.6022   -1.0535    0.0000 C   0  0  0  0  0  0  0  0  0  0  0  0
    9.2272   -2.1360    0.0000 C   0  0  0  0  0  0  0  0  0  0  0  0
   10.4772   -4.3011    0.0000 O   0  0  0  0  0  0  0  0  0  0  0  0
    8.6022   -5.3836    0.0000 O   0  0  0  0  0  0  0  0  0  0  0  0
    5.4772   -4.3011    0.0000 C   0  0  0  0  0  0  0  0  0  0  0  0
    4.8522   -5.3836    0.0000 C   0  0  0  0  0  0  0  0  0  0  0  0
    3.6022   -5.3836    0.0000 C   0  0  0  0  0  0  0  0  0  0  0  0
    2.9772   -4.3011    0.0000 C   0  0  0  0  0  0  0  0  0  0  0  0
    3.6022   -3.2186    0.0000 C   0  0  0  0  0  0  0  0  0  0  0  0
    4.8522   -3.2186    0.0000 C   0  0  0  0  0  0  0  0  0  0  0  0
  1  2  1  0  0  0  0
  2  3  1  0  0  0  0
  3  4  1  0  0  0  0
  3  5  2  0  0  0  0
  5  6  1  0  0  0  0
  6  7  2  0  0  0  0
  7  8  1  0  0  0  0
  2  8  2  0  0  0  0
  1  9  2  0  0  0  0
  1 10  1  0  0  0  0
 11 12  1  0  0  0  0
 12 13  2  0  0  0  0
 13 14  1  0  0  0  0
 14 15  2  0  0  0  0
 15 16  1  0  0  0  0
 11 16  2  0  0  0  0
  4 11  1  0  0  0  0
M  END
> <#>
328

> <PLATE>
LAT005

> <ROW>
H

> <COL>
2

> <COORD>
H02

> <LATID>
LAT005H02

> <Supplier>
Fluka

> <Suplier_CAT#>
78150

> <Name>
N-Phenylanthranilic Acid

> <Concentration_(mM)>
2.5

> <IC50_(µM)>
74

> <Yeast_Active?>
-

> <Pubchem_CID>
4386

$$$$
