
  -ISIS-  08130814242D

 25 27  0  0  0  0  0  0  0  0999 V2000
   -2.8708    0.2958    0.0000 N   0  0  3  0  0  0  0  0  0  0  0  0
   -2.8708    1.0708    0.0000 C   0  0  0  0  0  0  0  0  0  0  0  0
   -2.2000   -0.1167    0.0000 C   0  0  0  0  0  0  0  0  0  0  0  0
   -1.5125    1.0708    0.0000 C   0  0  0  0  0  0  0  0  0  0  0  0
   -3.6500   -0.1375    0.0000 C   0  0  0  0  0  0  0  0  0  0  0  0
   -1.5125    0.2958    0.0000 C   0  0  3  0  0  0  0  0  0  0  0  0
   -3.6500    1.5208    0.0000 O   0  0  0  0  0  0  0  0  0  0  0  0
   -2.2000   -1.0292    0.0000 O   0  0  0  0  0  0  0  0  0  0  0  0
   -3.6500   -1.0667    0.0000 C   0  0  0  0  0  0  0  0  0  0  0  0
   -0.7000   -0.1375    0.0000 N   0  0  0  0  0  0  0  0  0  0  0  0
   -2.8708   -1.5167    0.0000 F   0  0  0  0  0  0  0  0  0  0  0  0
    3.2042    1.1708    0.0000 C   0  0  0  0  0  0  0  0  0  0  0  0
    1.6375    0.2500    0.0000 C   0  0  0  0  0  0  0  0  0  0  0  0
    3.2042    0.2500    0.0000 C   0  0  0  0  0  0  0  0  0  0  0  0
    2.4292    1.6208    0.0000 C   0  0  0  0  0  0  0  0  0  0  0  0
    2.4292   -0.2042    0.0000 C   0  0  0  0  0  0  0  0  0  0  0  0
    1.6375    1.1708    0.0000 C   0  0  0  0  0  0  0  0  0  0  0  0
    0.0792    0.2958    0.0000 C   0  0  0  0  0  0  0  0  0  0  0  0
   -4.4708    0.3125    0.0000 C   0  0  0  0  0  0  0  0  0  0  0  0
    3.9792    1.6333    0.0000 O   0  0  0  0  0  0  0  0  0  0  0  0
    0.8792   -0.1542    0.0000 C   0  0  0  0  0  0  0  0  0  0  0  0
   -4.4708   -1.5167    0.0000 C   0  0  0  0  0  0  0  0  0  0  0  0
    4.7542    1.2000    0.0000 C   0  0  0  0  0  0  0  0  0  0  0  0
   -5.2458   -0.1375    0.0000 C   0  0  0  0  0  0  0  0  0  0  0  0
   -5.2458   -1.0667    0.0000 C   0  0  0  0  0  0  0  0  0  0  0  0
  2  1  1  0  0  0  0
  3  1  1  0  0  0  0
  4  2  1  0  0  0  0
  5  1  1  0  0  0  0
  6  3  1  0  0  0  0
  7  2  2  0  0  0  0
  8  3  2  0  0  0  0
  9  5  2  0  0  0  0
 10  6  1  0  0  0  0
 11  9  1  0  0  0  0
 12 15  1  0  0  0  0
 13 21  1  0  0  0  0
 14 16  1  0  0  0  0
 15 17  2  0  0  0  0
 16 13  2  0  0  0  0
 17 13  1  0  0  0  0
 18 10  1  0  0  0  0
 19  5  1  0  0  0  0
 20 12  1  0  0  0  0
 21 18  1  0  0  0  0
 22  9  1  0  0  0  0
 23 20  1  0  0  0  0
 24 19  2  0  0  0  0
 25 24  1  0  0  0  0
  6  4  1  0  0  0  0
 22 25  2  0  0  0  0
 12 14  2  0  0  0  0
M  END
> <#>
936

> <PLATE>
LAT012

> <ROW>
H

> <COL>
8

> <COORD>
H08

> <LATID>
LAT012H08

> <Supplier>
Chembridge

> <Suplier_CAT#>
5766675

> <Name>
Novel

> <Sec_Name>
242_E10

> <Concentration_(mM)>
2.5

> <IC50_(µM)>
83

> <Yeast_Active?>
-

> <Pubchem_CID>
742229

$$$$
