
  -ISIS-  08130814242D

 27 30  0  0  0  0  0  0  0  0999 V2000
    8.4094   -5.7979    0.0000 C   0  0  0  0  0  0  0  0  0  0  0  0
    9.4631   -6.3834    0.0000 C   0  0  0  0  0  0  0  0  0  0  0  0
   10.5548   -5.7746    0.0000 C   0  0  0  0  0  0  0  0  0  0  0  0
   10.5735   -4.5248    0.0000 C   0  0  0  0  0  0  0  0  0  0  0  0
    9.5004   -3.8837    0.0000 C   0  0  0  0  0  0  0  0  0  0  0  0
    8.4087   -4.4924    0.0000 C   0  0  0  0  0  0  0  0  0  0  0  0
    9.5104   -2.4838    0.0000 C   0  0  0  0  0  0  0  0  0  0  0  0
   10.5930   -1.8588    0.0000 C   0  0  0  0  0  0  0  0  0  0  0  0
   11.6755   -2.4838    0.0000 C   0  0  0  0  0  0  0  0  0  0  0  0
   12.7580   -1.8588    0.0000 C   0  0  0  0  0  0  0  0  0  0  0  0
   12.7581   -0.6088    0.0000 C   0  0  0  0  0  0  0  0  0  0  0  0
   13.8406    0.0162    0.0000 O   0  0  0  0  0  0  0  0  0  0  0  0
   11.6755    0.0162    0.0000 C   0  0  0  0  0  0  0  0  0  0  0  0
   10.5930   -0.6088    0.0000 C   0  0  0  0  0  0  0  0  0  0  0  0
    9.5105    0.0162    0.0000 O   0  0  0  0  0  0  0  0  0  0  0  0
    8.4279   -0.6087    0.0000 C   0  0  0  0  0  0  0  0  0  0  0  0
    8.4279   -1.8587    0.0000 C   0  0  0  0  0  0  0  0  0  0  0  0
    7.3454   -2.4837    0.0000 C   0  0  0  0  0  0  0  0  0  0  0  0
    6.2628   -1.8587    0.0000 C   0  0  0  0  0  0  0  0  0  0  0  0
    6.2629   -0.6087    0.0000 C   0  0  0  0  0  0  0  0  0  0  0  0
    7.3454    0.0163    0.0000 C   0  0  0  0  0  0  0  0  0  0  0  0
    7.3454    1.2663    0.0000 Cl  0  0  0  0  0  0  0  0  0  0  0  0
    5.1803    0.0163    0.0000 O   0  0  0  0  0  0  0  0  0  0  0  0
   11.6756    1.2662    0.0000 Cl  0  0  0  0  0  0  0  0  0  0  0  0
   11.3740   -4.0674    0.0000 C   0  0  0  0  0  0  0  0  0  0  0  0
   12.4476   -4.7077    0.0000 O   0  0  0  0  0  0  0  0  0  0  0  0
   11.3918   -2.8175    0.0000 O   0  0  0  0  0  0  0  0  0  0  0  0
  1  2  2  0  0  0  0
  2  3  1  0  0  0  0
  3  4  2  0  0  0  0
  4  5  1  0  0  0  0
  5  6  2  0  0  0  0
  1  6  1  0  0  0  0
  5  7  1  0  0  0  0
  7  8  2  0  0  0  0
  8  9  1  0  0  0  0
  9 10  2  0  0  0  0
 10 11  1  0  0  0  0
 11 12  2  0  0  0  0
 11 13  1  0  0  0  0
 13 14  2  0  0  0  0
  8 14  1  0  0  0  0
 14 15  1  0  0  0  0
 15 16  1  0  0  0  0
 16 17  2  0  0  0  0
  7 17  1  0  0  0  0
 17 18  1  0  0  0  0
 18 19  2  0  0  0  0
 19 20  1  0  0  0  0
 20 21  2  0  0  0  0
 16 21  1  0  0  0  0
 21 22  1  0  0  0  0
 20 23  1  0  0  0  0
 13 24  1  0  0  0  0
  4 25  1  0  0  0  0
 25 26  2  0  0  0  0
 25 27  1  0  0  0  0
M  END
> <#>
383

> <PLATE>
LAT005

> <ROW>
G

> <COL>
9

> <COORD>
G09

> <LATID>
LAT005G09

> <Supplier>
BDH

> <Suplier_CAT#>
Dichlorofluorescein

> <Name>
2,7-Dichlorofluorescein

> <Concentration_(mM)>
2.5

> <IC50_(µM)>
31

> <Yeast_Active?>
-

> <Pubchem_CID>
64944

$$$$
