
  -ISIS-  08130814242D

 24 27  0  0  0  0  0  0  0  0999 V2000
   -1.0500    0.7500    0.0000 C   0  0  0  0  0  0  0  0  0  0  0  0
    0.1375    0.3500    0.0000 N   0  0  0  0  0  0  0  0  0  0  0  0
   -2.0958    0.1333    0.0000 C   0  0  0  0  0  0  0  0  0  0  0  0
    0.8292    1.3625    0.0000 C   0  0  0  0  0  0  0  0  0  0  0  0
    0.1375    2.3708    0.0000 C   0  0  0  0  0  0  0  0  0  0  0  0
   -1.0500    1.9708    0.0000 C   0  0  0  0  0  0  0  0  0  0  0  0
   -2.0958   -1.1167    0.0000 C   0  0  0  0  0  0  0  0  0  0  0  0
   -1.0500   -2.9542    0.0000 N   0  0  0  0  0  0  0  0  0  0  0  0
   -1.0500   -1.7375    0.0000 N   0  0  0  0  0  0  0  0  0  0  0  0
   -3.1708   -1.7375    0.0000 O   0  0  0  0  0  0  0  0  0  0  0  0
    0.0375   -3.5667    0.0000 C   0  0  0  0  0  0  0  0  0  0  0  0
   -3.1708    0.7500    0.0000 C   0  0  0  0  0  0  0  0  0  0  0  0
   -2.0958    2.5833    0.0000 C   0  0  0  0  0  0  0  0  0  0  0  0
    0.6667    3.4625    0.0000 C   0  0  0  0  0  0  0  0  0  0  0  0
    2.0292    1.4500    0.0000 C   0  0  0  0  0  0  0  0  0  0  0  0
    1.0792   -2.9792    0.0000 C   0  0  0  0  0  0  0  0  0  0  0  0
   -3.1708    1.9708    0.0000 C   0  0  0  0  0  0  0  0  0  0  0  0
    2.1167   -3.5500    0.0000 C   0  0  0  0  0  0  0  0  0  0  0  0
    1.0792   -1.7875    0.0000 C   0  0  0  0  0  0  0  0  0  0  0  0
    1.8667    3.5708    0.0000 C   0  0  0  0  0  0  0  0  0  0  0  0
    2.5667    2.5625    0.0000 C   0  0  0  0  0  0  0  0  0  0  0  0
    3.1500   -2.9542    0.0000 C   0  0  0  0  0  0  0  0  0  0  0  0
    2.0875   -1.1792    0.0000 C   0  0  0  0  0  0  0  0  0  0  0  0
    3.1500   -1.7500    0.0000 C   0  0  0  0  0  0  0  0  0  0  0  0
  2  1  1  0  0  0  0
  3  1  1  0  0  0  0
  4  2  1  0  0  0  0
  5  6  1  0  0  0  0
  6  1  2  0  0  0  0
  7  3  1  0  0  0  0
  8  9  1  0  0  0  0
  9  7  1  0  0  0  0
 10  7  2  0  0  0  0
 11  8  2  0  0  0  0
 12  3  2  0  0  0  0
 13  6  1  0  0  0  0
 14  5  1  0  0  0  0
 15  4  1  0  0  0  0
 16 11  1  0  0  0  0
 17 13  2  0  0  0  0
 18 16  2  0  0  0  0
 19 16  1  0  0  0  0
 20 14  1  0  0  0  0
 21 15  1  0  0  0  0
 22 18  1  0  0  0  0
 23 19  2  0  0  0  0
 24 23  1  0  0  0  0
  5  4  2  0  0  0  0
 12 17  1  0  0  0  0
 20 21  1  0  0  0  0
 22 24  2  0  0  0  0
M  END
> <#>
556

> <PLATE>
LAT007

> <ROW>
D

> <COL>
11

> <COORD>
D11

> <LATID>
LAT007D11

> <Supplier>
Chembridge

> <Suplier_CAT#>
5472296

> <Name>
Novel

> <Sec_Name>
136_C05

> <Concentration_(mM)>
2.5

> <IC50_(µM)>
80

> <Yeast_Active?>
-

> <Pubchem_CID>
NULL

$$$$
