
  -ISIS-  08130814242D

 25 28  0  0  0  0  0  0  0  0999 V2000
    5.3292    0.0000    0.0000 C   0  0  0  0  0  0  0  0  0  0  0  0
    7.0292    0.9625    0.0000 C   0  0  0  0  0  0  0  0  0  0  0  0
    8.7375    0.0000    0.0000 C   0  0  0  0  0  0  0  0  0  0  0  0
    5.3292   -1.9292    0.0000 C   0  0  0  0  0  0  0  0  0  0  0  0
    7.0292   -2.9000    0.0000 O   0  0  0  0  0  0  0  0  0  0  0  0
   -1.7000   -0.9875    0.0000 C   0  0  0  0  0  0  0  0  0  0  0  0
   -3.4208   -0.0292    0.0000 C   0  0  0  0  0  0  0  0  0  0  0  0
   -6.7917   -0.0292    0.0000 C   0  0  0  0  0  0  0  0  0  0  0  0
    8.7375   -1.9292    0.0000 C   0  0  0  0  0  0  0  0  0  0  0  0
   -5.1208   -0.9875    0.0000 C   0  0  0  0  0  0  0  0  0  0  0  0
    1.9500    0.0000    0.0000 N   0  0  0  0  0  0  0  0  0  0  0  0
   -6.7917    1.9208    0.0000 C   0  0  0  0  0  0  0  0  0  0  0  0
   -8.6542   -0.6292    0.0000 O   0  0  0  0  0  0  0  0  0  0  0  0
   -8.6542    2.5208    0.0000 O   0  0  0  0  0  0  0  0  0  0  0  0
    3.6167    0.9625    0.0000 C   0  0  0  0  0  0  0  0  0  0  0  0
    7.0292    2.9000    0.0000 O   0  0  0  0  0  0  0  0  0  0  0  0
   -9.8000    0.9333    0.0000 C   0  0  0  0  0  0  0  0  0  0  0  0
    0.0000    0.0000    0.0000 N   0  0  0  0  0  0  0  0  0  0  0  0
   -1.7000   -2.9667    0.0000 O   0  0  0  0  0  0  0  0  0  0  0  0
   -3.4208    1.9208    0.0000 C   0  0  0  0  0  0  0  0  0  0  0  0
   -5.1208    2.8833    0.0000 C   0  0  0  0  0  0  0  0  0  0  0  0
   10.4375    0.9625    0.0000 C   0  0  0  0  0  0  0  0  0  0  0  0
   10.4375   -2.9000    0.0000 C   0  0  0  0  0  0  0  0  0  0  0  0
   12.1375    0.0000    0.0000 C   0  0  0  0  0  0  0  0  0  0  0  0
   12.1375   -1.9292    0.0000 C   0  0  0  0  0  0  0  0  0  0  0  0
  2  1  1  0  0  0  0
  3  2  1  0  0  0  0
  4  1  2  0  0  0  0
  5  4  1  0  0  0  0
  6 18  1  0  0  0  0
  7  6  1  0  0  0  0
  8 10  2  0  0  0  0
  9  5  1  0  0  0  0
 10  7  1  0  0  0  0
 11 15  2  0  0  0  0
 12 21  2  0  0  0  0
 13  8  1  0  0  0  0
 14 12  1  0  0  0  0
 15  1  1  0  0  0  0
 16  2  2  0  0  0  0
 17 13  1  0  0  0  0
 18 11  1  0  0  0  0
 19  6  2  0  0  0  0
 20  7  2  0  0  0  0
 21 20  1  0  0  0  0
 22  3  1  0  0  0  0
 23  9  1  0  0  0  0
 24 22  2  0  0  0  0
 25 23  2  0  0  0  0
  9  3  2  0  0  0  0
 25 24  1  0  0  0  0
 12  8  1  0  0  0  0
 14 17  1  0  0  0  0
M  END
> <#>
965

> <PLATE>
LAT013

> <ROW>
E

> <COL>
2

> <COORD>
E02

> <LATID>
LAT013E02

> <Supplier>
Chembridge

> <Suplier_CAT#>
5748413

> <Name>
Novel

> <Sec_Name>
237_D10

> <Concentration_(mM)>
2.5

> <IC50_(µM)>
>100

> <Yeast_Active?>
-

> <Pubchem_CID>
869611

$$$$
