
  -ISIS-  08130814242D

 11 10  0  0  0  0  0  0  0  0999 V2000
    8.1837   -2.1269    0.0000 C   0  0  0  0  0  0  0  0  0  0  0  0
    7.7376   -2.8996    0.0000 N   0  3  0  0  0  0  0  0  0  0  0  0
    8.1837   -3.6724    0.0000 C   0  0  0  0  0  0  0  0  0  0  0  0
    7.7376   -4.4452    0.0000 C   0  0  0  0  0  0  0  0  0  0  0  0
    6.8452   -4.4452    0.0000 C   0  0  0  0  0  0  0  0  0  0  0  0
    6.3991   -3.6724    0.0000 C   0  0  0  0  0  0  0  0  0  0  0  0
    6.8452   -2.8996    0.0000 C   0  0  0  0  0  0  0  0  0  0  0  0
    5.5068   -3.6724    0.0000 C   0  0  0  0  0  0  0  0  0  0  0  0
    5.0606   -4.4452    0.0000 O   0  0  0  0  0  0  0  0  0  0  0  0
    5.0606   -2.8996    0.0000 O   0  0  0  0  0  0  0  0  0  0  0  0
    8.3208   -2.8677    0.0000 Cl  0  5  0  0  0  0  0  0  0  0  0  0
  1  2  1  0  0  0  0
  2  3  2  0  0  0  0
  3  4  1  0  0  0  0
  4  5  2  0  0  0  0
  5  6  1  0  0  0  0
  6  7  2  0  0  0  0
  2  7  1  0  0  0  0
  6  8  1  0  0  0  0
  8  9  2  0  0  0  0
  8 10  1  0  0  0  0
M  CHG  2   2   1  11  -1
M  END
> <#>
500

> <PLATE>
LAT007

> <ROW>
D

> <COL>
4

> <COORD>
D04

> <LATID>
LAT007D04

> <Supplier>
Sigma

> <Suplier_CAT#>
T-5509

> <Name>
Trigonelline Hcl

> <Concentration_(mM)>
2.5

> <IC50_(µM)>
inactive

> <Yeast_Active?>
-

> <Pubchem_CID>
5570

$$$$
