
  -ISIS-  08130814242D

 15 16  0  0  0  0  0  0  0  0999 V2000
   -3.8459    2.4951    0.0000 N   0  0  0  0  0  0  0  0  0  0  0  0
   -3.2228    2.3798    0.0000 C   0  0  0  0  0  0  0  0  0  0  0  0
   -3.1398    1.7515    0.0000 C   0  0  0  0  0  0  0  0  0  0  0  0
   -3.7118    1.4785    0.0000 C   0  0  0  0  0  0  0  0  0  0  0  0
   -3.8916    0.8708    0.0000 C   0  0  0  0  0  0  0  0  0  0  0  0
   -4.5078    0.7226    0.0000 C   0  0  0  0  0  0  0  0  0  0  0  0
   -4.9442    1.1822    0.0000 C   0  0  0  0  0  0  0  0  0  0  0  0
   -4.7644    1.7899    0.0000 C   0  0  0  0  0  0  0  0  0  0  0  0
   -4.1482    1.9380    0.0000 C   0  0  0  0  0  0  0  0  0  0  0  0
   -0.9452    1.8096    0.0000 C   0  0  0  0  0  0  0  0  0  0  0  0
   -1.4855    1.4783    0.0000 C   0  0  0  0  0  0  0  0  0  0  0  0
   -2.0425    1.7806    0.0000 C   0  0  0  0  0  0  0  0  0  0  0  0
   -2.5828    1.4493    0.0000 C   0  0  0  0  0  0  0  0  0  0  0  0
   -0.9288    2.4432    0.0000 O   0  0  0  0  0  0  0  0  0  0  0  0
   -0.3882    1.5074    0.0000 O   0  0  0  0  0  0  0  0  0  0  0  0
  1  2  1  0  0  0  0
  2  3  2  0  0  0  0
  3  4  1  0  0  0  0
  4  5  1  0  0  0  0
  5  6  2  0  0  0  0
  6  7  1  0  0  0  0
  7  8  2  0  0  0  0
  8  9  1  0  0  0  0
  1  9  1  0  0  0  0
  4  9  2  0  0  0  0
 10 11  1  0  0  0  0
 11 12  1  0  0  0  0
 12 13  1  0  0  0  0
 10 14  2  0  0  0  0
 10 15  1  0  0  0  0
  3 13  1  0  0  0  0
M  END
> <#>
448

> <PLATE>
LAT006

> <ROW>
H

> <COL>
7

> <COORD>
H07

> <LATID>
LAT006H07

> <Supplier>
Sigma

> <Suplier_CAT#>
I5386

> <Name>
Indole-3-Butyric Acid

> <Concentration_(mM)>
2.5

> <IC50_(µM)>
26

> <Yeast_Active?>
-

> <Pubchem_CID>
8617

> <Description>
Plant Growth Regulator

$$$$
