
  -ISIS-  08130814242D

 22 25  0  0  0  0  0  0  0  0999 V2000
    0.3500    0.1958    0.0000 N   0  0  0  0  0  0  0  0  0  0  0  0
    0.1375    2.8000    0.0000 N   0  3  0  0  0  0  0  0  0  0  0  0
    0.8292    1.2333    0.0000 C   0  0  0  0  0  0  0  0  0  0  0  0
    0.9500   -0.0875    0.0000 C   0  0  3  0  0  0  0  0  0  0  0  0
    1.4292    0.9500    0.0000 C   0  0  3  0  0  0  0  0  0  0  0  0
    0.2875    0.8500    0.0000 C   0  0  0  0  0  0  0  0  0  0  0  0
    1.4875    0.3125    0.0000 C   0  0  3  0  0  0  0  0  0  0  0  0
    0.7667    1.8708    0.0000 C   0  0  0  0  0  0  0  0  0  0  0  0
    0.1667    2.1500    0.0000 C   0  0  0  0  0  0  0  0  0  0  0  0
    0.6542    3.2125    0.0000 O   0  5  0  0  0  0  0  0  0  0  0  0
   -0.4208    3.1208    0.0000 O   0  0  0  0  0  0  0  0  0  0  0  0
    2.0292    1.2125    0.0000 C   0  0  0  0  0  0  0  0  0  0  0  0
    2.4417    0.7125    0.0000 C   0  0  0  0  0  0  0  0  0  0  0  0
   -0.3125    1.1125    0.0000 C   0  0  0  0  0  0  0  0  0  0  0  0
   -0.3958    1.7500    0.0000 C   0  0  0  0  0  0  0  0  0  0  0  0
    1.0292   -0.7500    0.0000 C   0  0  3  0  0  0  0  0  0  0  0  0
    0.5500   -1.7875    0.0000 C   0  0  0  0  0  0  0  0  0  0  0  0
    1.1500   -2.0667    0.0000 C   0  0  0  0  0  0  0  0  0  0  0  0
    2.1292    0.1708    0.0000 C   0  0  0  0  0  0  0  0  0  0  0  0
    0.4875   -1.1500    0.0000 C   0  0  0  0  0  0  0  0  0  0  0  0
    1.6875   -1.6667    0.0000 C   0  0  0  0  0  0  0  0  0  0  0  0
    1.6292   -1.0292    0.0000 C   0  0  0  0  0  0  0  0  0  0  0  0
  2  9  1  0  0  0  0
  3  6  2  0  0  0  0
  4  1  1  0  0  0  0
  5  3  1  0  0  0  0
  6  1  1  0  0  0  0
  7  4  1  0  0  0  0
  8  3  1  0  0  0  0
  9 15  1  0  0  0  0
 10  2  1  0  0  0  0
 11  2  2  0  0  0  0
 12  5  1  0  0  0  0
 13 19  1  0  0  0  0
 14  6  1  0  0  0  0
 15 14  2  0  0  0  0
 16  4  1  0  0  0  0
 17 20  1  0  0  0  0
 18 21  1  0  0  0  0
 19  7  1  0  0  0  0
 20 16  1  0  0  0  0
 21 22  1  0  0  0  0
 22 16  1  0  0  0  0
  5  7  1  0  0  0  0
  8  9  2  0  0  0  0
 12 13  2  0  0  0  0
 18 17  2  0  0  0  0
M  CHG  2   2   1  10  -1
M  END
> <#>
856

> <PLATE>
LAT011

> <ROW>
H

> <COL>
8

> <COORD>
H08

> <LATID>
LAT011H08

> <Supplier>
Chembridge

> <Suplier_CAT#>
5651737

> <Name>
Novel

> <Sec_Name>
199_H10

> <Concentration_(mM)>
2.5

> <IC50_(µM)>
inactive

> <Yeast_Active?>
-

> <Pubchem_CID>
2858295

$$$$
