
  -ISIS-  08130814242D

 21 22  0  0  0  0  0  0  0  0999 V2000
    0.2500   -0.3500    0.0000 C   0  0  0  0  0  0  0  0  0  0  0  0
    3.0167   -0.3167    0.0000 C   0  0  0  0  0  0  0  0  0  0  0  0
   -1.1458    0.4333    0.0000 N   0  0  0  0  0  0  0  0  0  0  0  0
    3.9500   -0.3042    0.0000 C   0  0  0  0  0  0  0  0  0  0  0  0
    2.5500    0.4708    0.0000 C   0  0  0  0  0  0  0  0  0  0  0  0
   -0.2208    0.4458    0.0000 N   0  0  0  0  0  0  0  0  0  0  0  0
    1.6292    0.4625    0.0000 O   0  0  0  0  0  0  0  0  0  0  0  0
   -0.2000   -1.1500    0.0000 O   0  0  0  0  0  0  0  0  0  0  0  0
    1.1667   -0.3375    0.0000 C   0  0  0  0  0  0  0  0  0  0  0  0
    3.0042    1.2708    0.0000 C   0  0  0  0  0  0  0  0  0  0  0  0
    4.4042    0.4958    0.0000 C   0  0  0  0  0  0  0  0  0  0  0  0
   -3.9458    0.4458    0.0000 C   0  0  0  0  0  0  0  0  0  0  0  0
   -4.4125   -0.3667    0.0000 C   0  0  0  0  0  0  0  0  0  0  0  0
   -1.6000   -0.3667    0.0000 C   0  0  0  0  0  0  0  0  0  0  0  0
    2.5542   -1.1167    0.0000 Cl  0  0  0  0  0  0  0  0  0  0  0  0
    3.9375    1.2833    0.0000 C   0  0  0  0  0  0  0  0  0  0  0  0
    5.3292    0.4958    0.0000 Cl  0  0  0  0  0  0  0  0  0  0  0  0
   -2.5333   -0.3667    0.0000 C   0  0  3  0  0  0  0  0  0  0  0  0
   -3.0000    0.4458    0.0000 C   0  0  0  0  0  0  0  0  0  0  0  0
   -3.9458   -1.1792    0.0000 C   0  0  0  0  0  0  0  0  0  0  0  0
   -3.0000   -1.1792    0.0000 C   0  0  0  0  0  0  0  0  0  0  0  0
  2  5  2  0  0  0  0
  3  6  1  0  0  0  0
  4  2  1  0  0  0  0
  5  7  1  0  0  0  0
  6  1  1  0  0  0  0
  7  9  1  0  0  0  0
  8  1  2  0  0  0  0
  9  1  1  0  0  0  0
 10  5  1  0  0  0  0
 11 16  1  0  0  0  0
 12 19  1  0  0  0  0
 13 20  1  0  0  0  0
 14  3  2  0  0  0  0
 15  2  1  0  0  0  0
 16 10  2  0  0  0  0
 17 11  1  0  0  0  0
 18 14  1  0  0  0  0
 19 18  1  0  0  0  0
 20 21  1  0  0  0  0
 21 18  1  0  0  0  0
 11  4  2  0  0  0  0
 12 13  2  0  0  0  0
M  END
> <#>
549

> <PLATE>
LAT007

> <ROW>
E

> <COL>
10

> <COORD>
E10

> <LATID>
LAT007E10

> <Supplier>
Chembridge

> <Suplier_CAT#>
5471583

> <Name>
Novel

> <Sec_Name>
135_H05

> <Concentration_(mM)>
2.5

> <IC50_(µM)>
0.11

> <Yeast_Active?>
-

> <Pubchem_CID>
2847441

$$$$
