
  -ISIS-  08130814242D

 25 27  0  0  0  0  0  0  0  0999 V2000
   -0.4208    0.6500    0.0000 C   0  0  0  0  0  0  0  0  0  0  0  0
   -1.1208    0.2958    0.0000 N   0  0  0  0  0  0  0  0  0  0  0  0
   -1.7625    0.6708    0.0000 N   0  0  3  0  0  0  0  0  0  0  0  0
    0.2167    0.2625    0.0000 C   0  0  0  0  0  0  0  0  0  0  0  0
   -0.4208    1.3708    0.0000 C   0  0  0  0  0  0  0  0  0  0  0  0
   -3.1125    0.6958    0.0000 C   0  0  0  0  0  0  0  0  0  0  0  0
   -1.7625    1.3708    0.0000 C   0  0  0  0  0  0  0  0  0  0  0  0
   -3.1125    1.4958    0.0000 C   0  0  0  0  0  0  0  0  0  0  0  0
   -2.4625    0.3125    0.0000 C   0  0  0  0  0  0  0  0  0  0  0  0
    1.5292    0.2625    0.0000 N   0  0  0  0  0  0  0  0  0  0  0  0
   -3.8000    1.8833    0.0000 C   0  0  0  0  0  0  0  0  0  0  0  0
    0.8875    0.6708    0.0000 N   0  0  0  0  0  0  0  0  0  0  0  0
    0.2167   -0.5000    0.0000 O   0  0  0  0  0  0  0  0  0  0  0  0
    4.2375   -0.4792    0.0000 N   0  0  0  0  0  0  0  0  0  0  0  0
   -3.8000    0.2958    0.0000 C   0  0  0  0  0  0  0  0  0  0  0  0
   -4.4833    1.4958    0.0000 C   0  0  0  0  0  0  0  0  0  0  0  0
    2.2042    0.6708    0.0000 C   0  0  0  0  0  0  0  0  0  0  0  0
   -2.4333    1.8958    0.0000 Cl  0  0  0  0  0  0  0  0  0  0  0  0
   -4.4833    0.6958    0.0000 C   0  0  0  0  0  0  0  0  0  0  0  0
   -5.1625    1.8958    0.0000 Cl  0  0  0  0  0  0  0  0  0  0  0  0
    2.8875    0.2833    0.0000 C   0  0  0  0  0  0  0  0  0  0  0  0
    4.2375    0.2833    0.0000 C   0  0  0  0  0  0  0  0  0  0  0  0
    3.6042   -0.8667    0.0000 C   0  0  0  0  0  0  0  0  0  0  0  0
    2.8875   -0.5042    0.0000 C   0  0  0  0  0  0  0  0  0  0  0  0
    3.6000    0.6958    0.0000 C   0  0  0  0  0  0  0  0  0  0  0  0
  2  1  2  0  0  0  0
  3  2  1  0  0  0  0
  4  1  1  0  0  0  0
  5  1  1  0  0  0  0
  6  9  1  0  0  0  0
  7  5  2  0  0  0  0
  8  6  2  0  0  0  0
  9  3  1  0  0  0  0
 10 12  1  0  0  0  0
 11  8  1  0  0  0  0
 12  4  1  0  0  0  0
 13  4  2  0  0  0  0
 14 22  2  0  0  0  0
 15  6  1  0  0  0  0
 16 19  1  0  0  0  0
 17 10  2  0  0  0  0
 18  8  1  0  0  0  0
 19 15  2  0  0  0  0
 20 16  1  0  0  0  0
 21 17  1  0  0  0  0
 22 25  1  0  0  0  0
 23 24  2  0  0  0  0
 24 21  1  0  0  0  0
 25 21  2  0  0  0  0
  7  3  1  0  0  0  0
 14 23  1  0  0  0  0
 16 11  2  0  0  0  0
M  END
> <#>
933

> <PLATE>
LAT012

> <ROW>
E

> <COL>
8

> <COORD>
E08

> <LATID>
LAT012E08

> <Supplier>
Chembridge

> <Suplier_CAT#>
5760235

> <Name>
Novel

> <Sec_Name>
241_F09

> <Concentration_(mM)>
2.5

> <IC50_(µM)>
33

> <Yeast_Active?>
-

> <Pubchem_CID>
1365372

$$$$
