
  -ISIS-  08130814242D

 19 20  0  0  0  0  0  0  0  0999 V2000
    0.4167    3.1125    0.0000 C   0  0  0  0  0  0  0  0  0  0  0  0
   -0.0708    3.8708    0.0000 N   0  3  0  0  0  0  0  0  0  0  0  0
    1.3500    3.1208    0.0000 C   0  0  0  0  0  0  0  0  0  0  0  0
    1.8042    2.3125    0.0000 C   0  0  0  0  0  0  0  0  0  0  0  0
    0.0000    2.3125    0.0000 C   0  0  0  0  0  0  0  0  0  0  0  0
    0.4292    1.5625    0.0000 C   0  0  0  0  0  0  0  0  0  0  0  0
    0.2667    4.7167    0.0000 O   0  5  0  0  0  0  0  0  0  0  0  0
    1.3500    1.5500    0.0000 C   0  0  0  0  0  0  0  0  0  0  0  0
   -0.9833    3.8833    0.0000 O   0  0  0  0  0  0  0  0  0  0  0  0
    2.7500    2.3125    0.0000 C   0  0  0  0  0  0  0  0  0  0  0  0
    3.2042    3.1125    0.0000 O   0  0  0  0  0  0  0  0  0  0  0  0
   -0.0333    0.7500    0.0000 C   0  0  0  0  0  0  0  0  0  0  0  0
    1.8292    3.9000    0.0000 O   0  0  0  0  0  0  0  0  0  0  0  0
   -0.9500    0.7500    0.0000 C   0  0  0  0  0  0  0  0  0  0  0  0
   -1.4000   -0.0292    0.0000 C   0  0  0  0  0  0  0  0  0  0  0  0
   -1.4208    1.5500    0.0000 C   0  0  0  0  0  0  0  0  0  0  0  0
   -2.3125    1.5458    0.0000 C   0  0  0  0  0  0  0  0  0  0  0  0
   -2.3125   -0.0292    0.0000 C   0  0  0  0  0  0  0  0  0  0  0  0
   -2.7708    0.7708    0.0000 C   0  0  0  0  0  0  0  0  0  0  0  0
  2  1  1  0  0  0  0
  3  1  1  0  0  0  0
  4  3  2  0  0  0  0
  5  1  2  0  0  0  0
  6  5  1  0  0  0  0
  7  2  1  0  0  0  0
  8  6  2  0  0  0  0
  9  2  2  0  0  0  0
 10  4  1  0  0  0  0
 11 10  2  0  0  0  0
 12  6  1  0  0  0  0
 13  3  1  0  0  0  0
 14 12  1  0  0  0  0
 15 14  1  0  0  0  0
 16 14  2  0  0  0  0
 17 16  1  0  0  0  0
 18 15  2  0  0  0  0
 19 17  2  0  0  0  0
  8  4  1  0  0  0  0
 18 19  1  0  0  0  0
M  CHG  2   2   1   7  -1
M  END
> <#>
669

> <PLATE>
LAT009

> <ROW>
E

> <COL>
5

> <COORD>
E05

> <LATID>
LAT009E05

> <Supplier>
Chembridge

> <Suplier_CAT#>
5530695

> <Name>
Novel

> <Sec_Name>
152_B04

> <Concentration_(mM)>
2.5

> <IC50_(µM)>
8

> <Yeast_Active?>
-

> <Pubchem_CID>
871077

$$$$
