
  -ISIS-  08130814242D

 18 19  0  0  0  0  0  0  0  0999 V2000
    0.7292   -0.7167    0.0000 N   0  3  0  0  0  0  0  0  0  0  0  0
    0.0750   -0.3417    0.0000 C   0  0  0  0  0  0  0  0  0  0  0  0
    1.3792   -0.3417    0.0000 C   0  0  0  0  0  0  0  0  0  0  0  0
    0.0750    0.4083    0.0000 C   0  0  0  0  0  0  0  0  0  0  0  0
    1.3792    0.4083    0.0000 C   0  0  0  0  0  0  0  0  0  0  0  0
    2.0375   -0.7167    0.0000 C   0  0  0  0  0  0  0  0  0  0  0  0
   -0.5833   -0.7167    0.0000 C   0  0  0  0  0  0  0  0  0  0  0  0
    0.7292    0.7875    0.0000 C   0  0  0  0  0  0  0  0  0  0  0  0
    2.0375    0.7875    0.0000 C   0  0  0  0  0  0  0  0  0  0  0  0
   -0.5833    0.7875    0.0000 C   0  0  0  0  0  0  0  0  0  0  0  0
    0.7292   -1.4667    0.0000 C   0  0  0  0  0  0  0  0  0  0  0  0
    2.6875   -0.3417    0.0000 C   0  0  0  0  0  0  0  0  0  0  0  0
   -1.2250   -0.3417    0.0000 C   0  0  0  0  0  0  0  0  0  0  0  0
    3.3375   -0.7167    0.0000 N   0  0  0  0  0  0  0  0  0  0  0  0
   -1.8750   -0.7167    0.0000 N   0  0  0  0  0  0  0  0  0  0  0  0
    2.6875    0.4083    0.0000 C   0  0  0  0  0  0  0  0  0  0  0  0
   -1.2250    0.4083    0.0000 C   0  0  0  0  0  0  0  0  0  0  0  0
    3.8292    0.4458    0.0000 Cl  0  5  0  0  0  0  0  0  0  0  0  0
  2  1  2  0  0  0  0
  3  1  1  0  0  0  0
  4  2  1  0  0  0  0
  5  3  1  0  0  0  0
  6  3  2  0  0  0  0
  7  2  1  0  0  0  0
  8  5  1  0  0  0  0
  9  5  2  0  0  0  0
 10  4  1  0  0  0  0
 11  1  1  0  0  0  0
 12  6  1  0  0  0  0
 13  7  2  0  0  0  0
 14 12  1  0  0  0  0
 15 13  1  0  0  0  0
 16 12  2  0  0  0  0
 17 13  1  0  0  0  0
  8  4  2  0  0  0  0
 16  9  1  0  0  0  0
 10 17  2  0  0  0  0
M  CHG  2   1   1  18  -1
M  END
> <#>
142

> <PLATE>
LAT002

> <ROW>
F

> <COL>
9

> <COORD>
F09

> <LATID>
LAT002F09

> <Supplier>
Microsource

> <Suplier_CAT#>
01500618

> <Name>
Acriflavinium Hydrochloride

> <Concentration_(mM)>
2.5

> <IC50_(µM)>
23

> <Yeast_Active?>
-

> <Pubchem_CID>
6842

> <Description>
Antiinfective, Intercalating Agent

$$$$
