
  -ISIS-  08130814242D

 12 13  0  0  0  0  0  0  0  0999 V2000
    5.6425   -4.4708    0.0000 C   0  0  0  0  0  0  0  0  0  0  0  0
    4.5599   -3.8458    0.0000 C   0  0  0  0  0  0  0  0  0  0  0  0
    4.5599   -2.5958    0.0000 C   0  0  0  0  0  0  0  0  0  0  0  0
    5.6425   -1.9708    0.0000 C   0  0  0  0  0  0  0  0  0  0  0  0
    6.7250   -2.5958    0.0000 C   0  0  0  0  0  0  0  0  0  0  0  0
    7.8075   -1.9708    0.0000 C   0  0  0  0  0  0  0  0  0  0  0  0
    8.8901   -2.5958    0.0000 C   0  0  0  0  0  0  0  0  0  0  0  0
    8.8901   -3.8458    0.0000 C   0  0  0  0  0  0  0  0  0  0  0  0
    7.8075   -4.4708    0.0000 C   0  0  0  0  0  0  0  0  0  0  0  0
    6.7250   -3.8458    0.0000 C   0  0  0  0  0  0  0  0  0  0  0  0
    3.4774   -4.4708    0.0000 O   0  0  0  0  0  0  0  0  0  0  0  0
    9.9726   -4.4708    0.0000 O   0  0  0  0  0  0  0  0  0  0  0  0
  1  2  1  0  0  0  0
  2  3  2  0  0  0  0
  3  4  1  0  0  0  0
  4  5  2  0  0  0  0
  5  6  1  0  0  0  0
  6  7  2  0  0  0  0
  7  8  1  0  0  0  0
  8  9  2  0  0  0  0
  9 10  1  0  0  0  0
  1 10  2  0  0  0  0
  5 10  1  0  0  0  0
  2 11  1  0  0  0  0
  8 12  1  0  0  0  0
M  END
> <#>
330

> <PLATE>
LAT005

> <ROW>
B

> <COL>
3

> <COORD>
B03

> <LATID>
LAT005B03

> <Supplier>
Eastman

> <Suplier_CAT#>
Naphthalenediol

> <Name>
2,7-Naphthalenediol

> <Concentration_(mM)>
2.5

> <IC50_(µM)>
inactive

> <Yeast_Active?>
-

> <Pubchem_CID>
11397

$$$$
