
  -ISIS-  08130814242D

 24 25  0  0  0  0  0  0  0  0999 V2000
   -6.7000    1.0625    0.0000 C   0  0  0  0  0  0  0  0  0  0  0  0
   -8.0667   -1.2500    0.0000 C   0  0  0  0  0  0  0  0  0  0  0  0
   -8.0667    3.3708    0.0000 C   0  0  3  0  0  0  0  0  0  0  0  0
  -12.1042    1.0625    0.0000 C   0  0  0  0  0  0  0  0  0  0  0  0
  -10.8000   -1.2500    0.0000 N   0  0  0  0  0  0  0  0  0  0  0  0
  -10.8000    3.3708    0.0000 N   0  0  0  0  0  0  0  0  0  0  0  0
   -4.0208    1.0625    0.0000 C   0  0  0  0  0  0  0  0  0  0  0  0
   -6.7000    5.6875    0.0000 C   0  0  0  0  0  0  0  0  0  0  0  0
  -14.8375    1.0625    0.0000 O   0  0  0  0  0  0  0  0  0  0  0  0
   -2.6625    3.3833    0.0000 O   0  0  0  0  0  0  0  0  0  0  0  0
   -8.0667    8.0000    0.0000 C   0  0  0  0  0  0  0  0  0  0  0  0
   -4.0333    5.6875    0.0000 C   0  0  0  0  0  0  0  0  0  0  0  0
   -2.6625   -1.2542    0.0000 O   0  0  0  0  0  0  0  0  0  0  0  0
   -6.6375   -3.6292    0.0000 C   0  0  0  0  0  0  0  0  0  0  0  0
   -4.0333   10.3167    0.0000 C   0  0  0  0  0  0  0  0  0  0  0  0
   -6.7000   10.3167    0.0000 C   0  0  0  0  0  0  0  0  0  0  0  0
   -2.6708    8.0000    0.0000 C   0  0  0  0  0  0  0  0  0  0  0  0
   -2.6125   12.7000    0.0000 O   0  0  0  0  0  0  0  0  0  0  0  0
    0.0000   -1.2542    0.0000 C   0  0  0  0  0  0  0  0  0  0  0  0
   -3.9708   15.0667    0.0000 C   0  0  0  0  0  0  0  0  0  0  0  0
    1.3292   -3.5667    0.0000 C   0  0  0  0  0  0  0  0  0  0  0  0
    4.0000   -3.5667    0.0000 C   0  0  0  0  0  0  0  0  0  0  0  0
   -2.6125   17.4500    0.0000 C   0  0  0  0  0  0  0  0  0  0  0  0
    5.3292   -5.8667    0.0000 C   0  0  0  0  0  0  0  0  0  0  0  0
  2  1  2  0  0  0  0
  3  1  1  0  0  0  0
  4  6  1  0  0  0  0
  5  2  1  0  0  0  0
  6  3  1  0  0  0  0
  7  1  1  0  0  0  0
  8  3  1  0  0  0  0
  9  4  2  0  0  0  0
 10  7  2  0  0  0  0
 11  8  1  0  0  0  0
 12  8  2  0  0  0  0
 13  7  1  0  0  0  0
 14  2  1  0  0  0  0
 15 17  2  0  0  0  0
 16 11  2  0  0  0  0
 17 12  1  0  0  0  0
 18 15  1  0  0  0  0
 19 13  1  0  0  0  0
 20 18  1  0  0  0  0
 21 19  1  0  0  0  0
 22 21  1  0  0  0  0
 23 20  1  0  0  0  0
 24 22  1  0  0  0  0
  4  5  1  0  0  0  0
 15 16  1  0  0  0  0
M  END
> <#>
769

> <PLATE>
LAT010

> <ROW>
A

> <COL>
8

> <COORD>
A08

> <LATID>
LAT010A08

> <Supplier>
Chembridge

> <Suplier_CAT#>
5611981

> <Name>
Novel

> <Sec_Name>
185_G05

> <Concentration_(mM)>
2.5

> <IC50_(µM)>
23

> <Yeast_Active?>
-

> <Pubchem_CID>
2855443

$$$$
