
  -ISIS-  08130814242D

  9  9  0  0  0  0  0  0  0  0999 V2000
    9.5399   -4.9766    0.0000 O   0  0  0  0  0  0  0  0  0  0  0  0
   10.6225   -4.3516    0.0000 C   0  0  0  0  0  0  0  0  0  0  0  0
   11.5514   -5.1880    0.0000 N   0  0  0  0  0  0  0  0  0  0  0  0
   11.0430   -6.3299    0.0000 C   0  0  0  0  0  0  0  0  0  0  0  0
    9.7998   -6.1992    0.0000 C   0  0  3  0  0  0  0  0  0  0  0  0
   10.7531   -3.1084    0.0000 O   0  0  0  0  0  0  0  0  0  0  0  0
   11.6680   -7.4124    0.0000 O   0  0  0  0  0  0  0  0  0  0  0  0
    9.7998   -7.4492    0.0000 C   0  0  0  0  0  0  0  0  0  0  0  0
    8.5567   -6.3299    0.0000 C   0  0  0  0  0  0  0  0  0  0  0  0
  1  2  1  0  0  0  0
  2  3  1  0  0  0  0
  3  4  1  0  0  0  0
  4  5  1  0  0  0  0
  1  5  1  0  0  0  0
  2  6  2  0  0  0  0
  4  7  2  0  0  0  0
  5  8  1  0  0  0  0
  5  9  1  0  0  0  0
M  END
> <#>
317

> <PLATE>
LAT004

> <ROW>
E

> <COL>
11

> <COORD>
E11

> <LATID>
LAT004E11

> <Supplier>
ICN

> <Suplier_CAT#>
4052

> <Name>
5,5-Dimethyl Oxazolidine 2,4-Dione

> <Concentration_(mM)>
2.5

> <IC50_(µM)>
inactive

> <Yeast_Active?>
-

> <Pubchem_CID>
3081

$$$$
