
  -ISIS-  08130814242D

 11 12  0  0  0  0  0  0  0  0999 V2000
    5.0375   -2.5875    0.0000 C   0  0  0  0  0  0  0  0  0  0  0  0
    4.5542   -3.2542    0.0000 S   0  0  0  0  0  0  0  0  0  0  0  0
    4.5417   -1.9167    0.0000 O   0  0  0  0  0  0  0  0  0  0  0  0
    3.7625   -2.1792    0.0000 C   0  0  0  0  0  0  0  0  0  0  0  0
    3.7667   -3.0042    0.0000 C   0  0  0  0  0  0  0  0  0  0  0  0
    3.0417   -1.7667    0.0000 C   0  0  0  0  0  0  0  0  0  0  0  0
    5.8625   -2.5792    0.0000 O   0  0  0  0  0  0  0  0  0  0  0  0
    3.0417   -3.4250    0.0000 C   0  0  0  0  0  0  0  0  0  0  0  0
    2.3292   -2.1875    0.0000 C   0  0  0  0  0  0  0  0  0  0  0  0
    2.3292   -3.0125    0.0000 C   0  0  0  0  0  0  0  0  0  0  0  0
    1.6167   -1.7667    0.0000 O   0  0  0  0  0  0  0  0  0  0  0  0
  2  1  1  0  0  0  0
  3  1  1  0  0  0  0
  4  3  1  0  0  0  0
  5  2  1  0  0  0  0
  6  4  2  0  0  0  0
  7  1  2  0  0  0  0
  8  5  2  0  0  0  0
  9  6  1  0  0  0  0
 10  8  1  0  0  0  0
 11  9  1  0  0  0  0
  4  5  1  0  0  0  0
  9 10  2  0  0  0  0
M  END
> <#>
122

> <PLATE>
LAT002

> <ROW>
B

> <COL>
7

> <COORD>
B07

> <LATID>
LAT002B07

> <Supplier>
Microsource

> <Suplier_CAT#>
01503094

> <Name>
Thioxolone

> <Concentration_(mM)>
2.5

> <IC50_(µM)>
0.29

> <Yeast_Active?>
-

> <Pubchem_CID>
72139

> <Description>
Antiseborrhoic

$$$$
