
  -ISIS-  08130814242D

 14 16  0  0  0  0  0  0  0  0999 V2000
    3.6750   -1.9292    0.0000 N   0  0  3  0  0  0  0  0  0  0  0  0
    4.5417   -2.4292    0.0000 C   0  0  0  0  0  0  0  0  0  0  0  0
    3.6750   -0.9292    0.0000 C   0  0  0  0  0  0  0  0  0  0  0  0
    5.4125   -1.9292    0.0000 N   0  0  0  0  0  0  0  0  0  0  0  0
    3.6750   -3.9292    0.0000 N   0  0  0  0  0  0  0  0  0  0  0  0
    5.4125   -0.9292    0.0000 O   0  0  0  0  0  0  0  0  0  0  0  0
    2.8042   -2.4292    0.0000 C   0  0  0  0  0  0  0  0  0  0  0  0
    4.5417   -3.4292    0.0000 C   0  0  0  0  0  0  0  0  0  0  0  0
    2.8042   -3.4292    0.0000 C   0  0  0  0  0  0  0  0  0  0  0  0
    2.9292   -0.2667    0.0000 O   0  0  0  0  0  0  0  0  0  0  0  0
    1.9417   -1.9292    0.0000 C   0  0  0  0  0  0  0  0  0  0  0  0
    1.9417   -3.9292    0.0000 C   0  0  0  0  0  0  0  0  0  0  0  0
    1.0792   -2.4292    0.0000 C   0  0  0  0  0  0  0  0  0  0  0  0
    1.0792   -3.4292    0.0000 C   0  0  0  0  0  0  0  0  0  0  0  0
  2  1  1  0  0  0  0
  3  1  1  0  0  0  0
  4  2  2  0  0  0  0
  5  9  1  0  0  0  0
  6  3  1  0  0  0  0
  7  1  1  0  0  0  0
  8  2  1  0  0  0  0
  9  7  2  0  0  0  0
 10  3  2  0  0  0  0
 11  7  1  0  0  0  0
 12  9  1  0  0  0  0
 13 11  2  0  0  0  0
 14 13  1  0  0  0  0
  4  6  1  0  0  0  0
  5  8  2  0  0  0  0
 14 12  2  0  0  0  0
M  END
> <#>
260

> <PLATE>
LAT004

> <ROW>
D

> <COL>
4

> <COORD>
D04

> <LATID>
LAT004D04

> <Supplier>
Sigma

> <Suplier_CAT#>
O 3636

> <Name>
ODQ

> <Concentration_(mM)>
2.5

> <IC50_(µM)>
17

> <Yeast_Active?>
-

> <Pubchem_CID>
1456

> <Description>
Potent and selective NO-sensitive guanylyl cyclase inhibitor

$$$$
