
  -ISIS-  08130814242D

 23 25  0  0  0  0  0  0  0  0999 V2000
   -1.6458   -0.4375    0.0000 N   0  0  3  0  0  0  0  0  0  0  0  0
   -1.7333   -1.1875    0.0000 C   0  0  0  0  0  0  0  0  0  0  0  0
   -0.5708   -0.9500    0.0000 C   0  0  0  0  0  0  0  0  0  0  0  0
   -0.9125   -0.3042    0.0000 C   0  0  0  0  0  0  0  0  0  0  0  0
   -1.0625   -1.5000    0.0000 S   0  0  0  0  0  0  0  0  0  0  0  0
    0.1875   -0.9500    0.0000 C   0  0  0  0  0  0  0  0  0  0  0  0
    0.5500   -0.2875    0.0000 C   0  0  0  0  0  0  0  0  0  0  0  0
   -2.1958    0.0625    0.0000 C   0  0  0  0  0  0  0  0  0  0  0  0
   -2.4125   -1.5542    0.0000 O   0  0  0  0  0  0  0  0  0  0  0  0
   -0.5958    0.3958    0.0000 O   0  0  0  0  0  0  0  0  0  0  0  0
    1.3042   -0.3042    0.0000 C   0  0  0  0  0  0  0  0  0  0  0  0
    0.1792    0.3708    0.0000 C   0  0  0  0  0  0  0  0  0  0  0  0
    1.6792    0.3708    0.0000 C   0  0  0  0  0  0  0  0  0  0  0  0
    0.5292    0.9958    0.0000 C   0  0  0  0  0  0  0  0  0  0  0  0
    1.2792    1.0125    0.0000 C   0  0  0  0  0  0  0  0  0  0  0  0
    0.1167    1.6000    0.0000 Br  0  0  0  0  0  0  0  0  0  0  0  0
    1.6667   -0.9500    0.0000 O   0  0  0  0  0  0  0  0  0  0  0  0
   -2.9208   -0.1542    0.0000 C   0  0  0  0  0  0  0  0  0  0  0  0
   -2.0125    0.7958    0.0000 C   0  0  0  0  0  0  0  0  0  0  0  0
    2.4042   -0.9500    0.0000 C   0  0  0  0  0  0  0  0  0  0  0  0
   -3.4708    0.3625    0.0000 C   0  0  0  0  0  0  0  0  0  0  0  0
   -2.5625    1.3000    0.0000 C   0  0  0  0  0  0  0  0  0  0  0  0
   -3.3125    1.0833    0.0000 C   0  0  0  0  0  0  0  0  0  0  0  0
  2  1  1  0  0  0  0
  3  4  1  0  0  0  0
  4  1  1  0  0  0  0
  5  2  1  0  0  0  0
  6  3  2  0  0  0  0
  7  6  1  0  0  0  0
  8  1  1  0  0  0  0
  9  2  2  0  0  0  0
 10  4  2  0  0  0  0
 11  7  2  0  0  0  0
 12  7  1  0  0  0  0
 13 11  1  0  0  0  0
 14 12  2  0  0  0  0
 15 14  1  0  0  0  0
 16 14  1  0  0  0  0
 17 11  1  0  0  0  0
 18  8  2  0  0  0  0
 19  8  1  0  0  0  0
 20 17  1  0  0  0  0
 21 18  1  0  0  0  0
 22 19  2  0  0  0  0
 23 22  1  0  0  0  0
  5  3  1  0  0  0  0
 23 21  2  0  0  0  0
 15 13  2  0  0  0  0
M  END
> <#>
1010

> <PLATE>
LAT013

> <ROW>
B

> <COL>
8

> <COORD>
B08

> <LATID>
LAT013B08

> <Supplier>
Chembridge

> <Suplier_CAT#>
5577758

> <Name>
Novel

> <Sec_Name>
179_G04

> <Concentration_(mM)>
2.5

> <IC50_(µM)>
inactive

> <Yeast_Active?>
-

> <Pubchem_CID>
1232804

$$$$
