
  -ISIS-  08130814242D

 22 24  0  0  0  0  0  0  0  0999 V2000
    3.3042    0.2833    0.0000 C   0  0  0  0  0  0  0  0  0  0  0  0
    0.3292   -0.3042    0.0000 N   0  0  0  0  0  0  0  0  0  0  0  0
    2.3667   -0.2542    0.0000 C   0  0  0  0  0  0  0  0  0  0  0  0
   -1.5833   -0.3000    0.0000 C   0  0  0  0  0  0  0  0  0  0  0  0
    3.3042    1.4000    0.0000 N   0  0  0  0  0  0  0  0  0  0  0  0
   -0.6000    0.2500    0.0000 N   0  0  0  0  0  0  0  0  0  0  0  0
    1.4375    0.2833    0.0000 C   0  0  0  0  0  0  0  0  0  0  0  0
   -1.5833   -1.3375    0.0000 O   0  0  0  0  0  0  0  0  0  0  0  0
    4.2042   -0.2542    0.0000 C   0  0  0  0  0  0  0  0  0  0  0  0
   -2.5208    0.2000    0.0000 C   0  0  0  0  0  0  0  0  0  0  0  0
   -3.4458   -0.3000    0.0000 C   0  0  0  0  0  0  0  0  0  0  0  0
    2.3667   -1.3875    0.0000 C   0  0  0  0  0  0  0  0  0  0  0  0
    3.2792   -1.9292    0.0000 C   0  0  0  0  0  0  0  0  0  0  0  0
    4.2875    1.9333    0.0000 C   0  0  0  0  0  0  0  0  0  0  0  0
    4.2042   -1.3875    0.0000 C   0  0  0  0  0  0  0  0  0  0  0  0
    5.2375    0.2708    0.0000 C   0  0  0  0  0  0  0  0  0  0  0  0
   -4.3458    0.2500    0.0000 C   0  0  0  0  0  0  0  0  0  0  0  0
   -3.4458   -1.3500    0.0000 C   0  0  0  0  0  0  0  0  0  0  0  0
    5.2375    1.3500    0.0000 C   0  0  0  0  0  0  0  0  0  0  0  0
   -5.2708   -0.2542    0.0000 C   0  0  0  0  0  0  0  0  0  0  0  0
   -4.3458   -1.9000    0.0000 C   0  0  0  0  0  0  0  0  0  0  0  0
   -5.2708   -1.3500    0.0000 C   0  0  0  0  0  0  0  0  0  0  0  0
  2  7  2  0  0  0  0
  3  1  1  0  0  0  0
  4  6  1  0  0  0  0
  5  1  1  0  0  0  0
  6  2  1  0  0  0  0
  7  3  1  0  0  0  0
  8  4  2  0  0  0  0
  9  1  2  0  0  0  0
 10  4  1  0  0  0  0
 11 10  1  0  0  0  0
 12  3  2  0  0  0  0
 13 15  2  0  0  0  0
 14  5  2  0  0  0  0
 15  9  1  0  0  0  0
 16  9  1  0  0  0  0
 17 11  1  0  0  0  0
 18 11  2  0  0  0  0
 19 16  2  0  0  0  0
 20 17  2  0  0  0  0
 21 18  1  0  0  0  0
 22 21  2  0  0  0  0
 19 14  1  0  0  0  0
 12 13  1  0  0  0  0
 22 20  1  0  0  0  0
M  END
> <#>
966

> <PLATE>
LAT013

> <ROW>
F

> <COL>
2

> <COORD>
F02

> <LATID>
LAT013F02

> <Supplier>
Chembridge

> <Suplier_CAT#>
5748221

> <Name>
Novel

> <Sec_Name>
237_A10

> <Concentration_(mM)>
2.5

> <IC50_(µM)>
67

> <Yeast_Active?>
-

> <Pubchem_CID>
869609

$$$$
