
  -ISIS-  08130814242D

 40 43  0  0  0  0  0  0  0  0999 V2000
    9.0654   -1.7573    0.0000 N   0  0  3  0  0  0  0  0  0  0  0  0
    9.7796   -1.3478    0.0000 C   0  0  0  0  0  0  0  0  0  0  0  0
    9.6108   -0.5419    0.0000 C   0  0  0  0  0  0  0  0  0  0  0  0
    8.7922   -0.4534    0.0000 C   0  0  0  0  0  0  0  0  0  0  0  0
    8.4552   -1.2045    0.0000 C   0  0  0  0  0  0  0  0  0  0  0  0
    8.3439   -3.8112    0.0000 C   0  0  0  0  0  0  0  0  0  0  0  0
    9.0535   -4.2286    0.0000 N   0  0  0  0  0  0  0  0  0  0  0  0
    9.7676   -3.8230    0.0000 C   0  0  0  0  0  0  0  0  0  0  0  0
    9.7735   -3.0000    0.0000 N   0  0  0  0  0  0  0  0  0  0  0  0
    9.0592   -2.5844    0.0000 C   0  0  0  0  0  0  0  0  0  0  0  0
    8.3480   -2.9924    0.0000 C   0  0  0  0  0  0  0  0  0  0  0  0
    6.1933   -5.0286    0.0000 N   0  0  3  0  0  0  0  0  0  0  0  0
    6.9050   -5.4460    0.0000 C   0  0  0  0  0  0  0  0  0  0  0  0
    7.6183   -5.0406    0.0000 C   0  0  0  0  0  0  0  0  0  0  0  0
    7.6262   -4.2163    0.0000 N   0  0  3  0  0  0  0  0  0  0  0  0
    6.9146   -3.7989    0.0000 C   0  0  0  0  0  0  0  0  0  0  0  0
    6.1950   -4.2059    0.0000 C   0  0  0  0  0  0  0  0  0  0  0  0
   10.4792   -4.2405    0.0000 N   0  0  3  0  0  0  0  0  0  0  0  0
   10.5548   -5.0596    0.0000 C   0  0  0  0  0  0  0  0  0  0  0  0
   11.3606   -5.2368    0.0000 C   0  0  0  0  0  0  0  0  0  0  0  0
   11.7781   -4.5253    0.0000 C   0  0  0  0  0  0  0  0  0  0  0  0
   11.2304   -3.9084    0.0000 C   0  0  0  0  0  0  0  0  0  0  0  0
    1.8236   -5.2458    0.0000 C   0  0  0  0  0  0  0  0  0  0  0  0
    1.8224   -6.0732    0.0000 C   0  0  0  0  0  0  0  0  0  0  0  0
    2.5372   -6.4860    0.0000 C   0  0  0  0  0  0  0  0  0  0  0  0
    2.5354   -4.8330    0.0000 C   0  0  0  0  0  0  0  0  0  0  0  0
    3.2508   -5.2422    0.0000 C   0  0  0  0  0  0  0  0  0  0  0  0
    3.2542   -6.0752    0.0000 C   0  0  0  0  0  0  0  0  0  0  0  0
    3.9734   -6.4865    0.0000 C   0  0  0  0  0  0  0  0  0  0  0  0
    4.6938   -6.0693    0.0000 C   0  0  0  0  0  0  0  0  0  0  0  0
    4.6904   -5.2363    0.0000 C   0  0  3  0  0  0  0  0  0  0  0  0
    3.9666   -4.8204    0.0000 O   0  0  0  0  0  0  0  0  0  0  0  0
    2.5330   -4.0080    0.0000 C   0  0  0  0  0  0  0  0  0  0  0  0
    1.1090   -4.8335    0.0000 C   0  0  0  0  0  0  0  0  0  0  0  0
    1.1076   -6.4851    0.0000 O   0  0  0  0  0  0  0  0  0  0  0  0
    2.5358   -7.3110    0.0000 C   0  0  0  0  0  0  0  0  0  0  0  0
    4.9000   -4.4333    0.0000 C   0  0  0  0  0  0  0  0  0  0  0  0
    5.4833   -5.4458    0.0000 C   0  0  0  0  0  0  0  0  0  0  0  0
    9.1250   -6.9625    0.0000 Cl  0  0  0  0  0  0  0  0  0  0  0  0
    9.1250   -6.9625    0.0000 Cl  0  0  0  0  0  0  0  0  0  0  0  0
 18 19  1  0  0  0  0
  8  9  2  0  0  0  0
  3  4  1  0  0  0  0
  9 10  1  0  0  0  0
  4  5  1  0  0  0  0
 19 20  1  0  0  0  0
 20 21  1  0  0  0  0
 21 22  1  0  0  0  0
 22 18  1  0  0  0  0
 10 11  2  0  0  0  0
 11  6  1  0  0  0  0
 23 24  2  0  0  0  0
 12 13  1  0  0  0  0
 24 25  1  0  0  0  0
 25 28  2  0  0  0  0
  5  1  1  0  0  0  0
 27 26  2  0  0  0  0
 26 23  1  0  0  0  0
 27 28  1  0  0  0  0
  1  2  1  0  0  0  0
  6  7  2  0  0  0  0
  7  8  1  0  0  0  0
 12 17  1  0  0  0  0
 27 32  1  0  0  0  0
 28 29  1  0  0  0  0
 29 30  1  0  0  0  0
 30 31  1  0  0  0  0
 31 32  1  0  0  0  0
 13 14  1  0  0  0  0
 26 33  1  0  0  0  0
 14 15  1  0  0  0  0
 23 34  1  0  0  0  0
 15 16  1  0  0  0  0
 24 35  1  0  0  0  0
 16 17  1  0  0  0  0
 25 36  1  0  0  0  0
 15  6  1  0  0  0  0
 31 37  1  0  0  0  0
  2  3  1  0  0  0  0
 31 38  1  0  0  0  0
 38 12  1  0  0  0  0
  8 18  1  0  0  0  0
 10  1  1  0  0  0  0
M  STY  1   1 MUL
M  SLB  1   1   1
M  SAL   1  2  39  40
M  SPA   1  1  39
M  SDI   1  4    8.3400   -7.5300    8.3400   -6.5200
M  SDI   1  4   10.0000   -6.5200   10.0000   -7.5300
M  SMT   1 2
M  END
> <#>
287

> <PLATE>
LAT004

> <ROW>
G

> <COL>
7

> <COORD>
G07

> <LATID>
LAT004G07

> <Supplier>
Sigma

> <Suplier_CAT#>
U 6007

> <Name>
U-83836 Dihydrochloride

> <Concentration_(mM)>
2.5

> <IC50_(µM)>
71

> <Yeast_Active?>
-

> <Pubchem_CID>
5624

> <Description>
Free radical lipid peroxidation inhibitor

$$$$
