
  -ISIS-  08130814242D

 11 11  0  0  0  0  0  0  0  0999 V2000
    8.1397   -3.2479    0.0000 C   0  0  0  0  0  0  0  0  0  0  0  0
    6.8897   -3.2479    0.0000 C   0  0  0  0  0  0  0  0  0  0  0  0
    6.2647   -4.3304    0.0000 C   0  0  0  0  0  0  0  0  0  0  0  0
    5.0147   -4.3304    0.0000 C   0  0  0  0  0  0  0  0  0  0  0  0
    4.3897   -3.2479    0.0000 C   0  0  0  0  0  0  0  0  0  0  0  0
    5.0147   -2.1654    0.0000 C   0  0  0  0  0  0  0  0  0  0  0  0
    6.2647   -2.1654    0.0000 C   0  0  0  0  0  0  0  0  0  0  0  0
    8.7647   -2.1654    0.0000 O   0  0  0  0  0  0  0  0  0  0  0  0
    8.7647   -4.3304    0.0000 O   0  0  0  0  0  0  0  0  0  0  0  0
    6.8897   -1.0829    0.0000 O   0  0  0  0  0  0  0  0  0  0  0  0
    6.8897   -5.4130    0.0000 O   0  0  0  0  0  0  0  0  0  0  0  0
  1  2  1  0  0  0  0
  2  3  1  0  0  0  0
  3  4  2  0  0  0  0
  4  5  1  0  0  0  0
  5  6  2  0  0  0  0
  6  7  1  0  0  0  0
  2  7  2  0  0  0  0
  1  8  2  0  0  0  0
  1  9  1  0  0  0  0
  7 10  1  0  0  0  0
  3 11  1  0  0  0  0
M  END
> <#>
349

> <PLATE>
LAT005

> <ROW>
E

> <COL>
5

> <COORD>
E05

> <LATID>
LAT005E05

> <Supplier>
Aldrich

> <Suplier_CAT#>
D109606

> <Name>
2,6-Dihydroxybenzoic Acid

> <Concentration_(mM)>
2.5

> <IC50_(µM)>
inactive

> <Yeast_Active?>
-

> <Pubchem_CID>
9338

$$$$
