
  -ISIS-  08130814242D

 19 21  0  0  0  0  0  0  0  0999 V2000
   -2.3833    1.1125    0.0000 N   0  0  3  0  0  0  0  0  0  0  0  0
   -2.9625    0.7833    0.0000 C   0  0  0  0  0  0  0  0  0  0  0  0
   -1.8833    0.7000    0.0000 C   0  0  0  0  0  0  0  0  0  0  0  0
   -2.8125    0.1333    0.0000 N   0  0  0  0  0  0  0  0  0  0  0  0
   -2.1458    0.0625    0.0000 C   0  0  0  0  0  0  0  0  0  0  0  0
   -2.3833    1.7708    0.0000 C   0  0  0  0  0  0  0  0  0  0  0  0
   -3.5458    1.1125    0.0000 C   0  0  0  0  0  0  0  0  0  0  0  0
   -1.2500    0.8958    0.0000 C   0  0  0  0  0  0  0  0  0  0  0  0
   -2.9625    2.1000    0.0000 C   0  0  0  0  0  0  0  0  0  0  0  0
   -3.5458    1.7708    0.0000 C   0  0  0  0  0  0  0  0  0  0  0  0
   -1.1000    1.5333    0.0000 O   0  0  0  0  0  0  0  0  0  0  0  0
   -0.7708    0.4458    0.0000 O   0  0  0  0  0  0  0  0  0  0  0  0
   -1.8208   -0.5000    0.0000 C   0  0  0  0  0  0  0  0  0  0  0  0
   -4.1208    0.7833    0.0000 C   0  0  0  0  0  0  0  0  0  0  0  0
   -4.1208    2.1000    0.0000 C   0  0  0  0  0  0  0  0  0  0  0  0
   -0.1500    0.6333    0.0000 C   0  0  0  0  0  0  0  0  0  0  0  0
   -4.7083    1.1125    0.0000 C   0  0  0  0  0  0  0  0  0  0  0  0
    0.3292    0.1958    0.0000 C   0  0  0  0  0  0  0  0  0  0  0  0
   -4.7083    1.7708    0.0000 C   0  0  0  0  0  0  0  0  0  0  0  0
  2  1  1  0  0  0  0
  3  1  1  0  0  0  0
  4  2  2  0  0  0  0
  5  3  2  0  0  0  0
  6  1  1  0  0  0  0
  7  2  1  0  0  0  0
  8  3  1  0  0  0  0
  9  6  2  0  0  0  0
 10  9  1  0  0  0  0
 11  8  2  0  0  0  0
 12  8  1  0  0  0  0
 13  5  1  0  0  0  0
 14  7  1  0  0  0  0
 15 10  1  0  0  0  0
 16 12  1  0  0  0  0
 17 14  2  0  0  0  0
 18 16  1  0  0  0  0
 19 15  2  0  0  0  0
  5  4  1  0  0  0  0
 10  7  2  0  0  0  0
 19 17  1  0  0  0  0
M  END
> <#>
958

> <PLATE>
LAT012

> <ROW>
F

> <COL>
11

> <COORD>
F11

> <LATID>
LAT012F11

> <Supplier>
Chembridge

> <Suplier_CAT#>
5742797

> <Name>
Novel

> <Sec_Name>
236_G04

> <Concentration_(mM)>
2.5

> <IC50_(µM)>
51

> <Yeast_Active?>
-

> <Pubchem_CID>
749132

$$$$
