
  -ISIS-  08130814242D

 22 23  0  0  0  0  0  0  0  0999 V2000
    4.6542   -3.5375    0.0000 C   0  0  0  0  0  0  0  0  0  0  0  0
    2.5167   -3.9542    0.0000 C   0  0  0  0  0  0  0  0  0  0  0  0
    3.9500   -3.9500    0.0000 N   0  0  0  0  0  0  0  0  0  0  0  0
    5.3667   -3.9500    0.0000 N   0  0  0  0  0  0  0  0  0  0  0  0
    3.2292   -4.3667    0.0000 N   0  0  0  0  0  0  0  0  0  0  0  0
    1.0875   -3.9542    0.0000 O   0  0  0  0  0  0  0  0  0  0  0  0
    4.6542   -2.7167    0.0000 O   0  0  0  0  0  0  0  0  0  0  0  0
    2.5042   -3.1292    0.0000 O   0  0  0  0  0  0  0  0  0  0  0  0
    0.3667   -4.3792    0.0000 C   0  0  0  0  0  0  0  0  0  0  0  0
    1.8000   -4.3667    0.0000 C   0  0  0  0  0  0  0  0  0  0  0  0
    0.3667   -5.2042    0.0000 C   0  0  0  0  0  0  0  0  0  0  0  0
    6.0875   -3.5292    0.0000 C   0  0  0  0  0  0  0  0  0  0  0  0
   -0.3333   -3.9667    0.0000 C   0  0  0  0  0  0  0  0  0  0  0  0
    1.0875   -5.6167    0.0000 C   0  0  0  0  0  0  0  0  0  0  0  0
   -0.3333   -5.6167    0.0000 C   0  0  0  0  0  0  0  0  0  0  0  0
    6.8000   -3.9375    0.0000 C   0  0  0  0  0  0  0  0  0  0  0  0
    6.0875   -2.7000    0.0000 C   0  0  0  0  0  0  0  0  0  0  0  0
   -1.0500   -5.2042    0.0000 C   0  0  0  0  0  0  0  0  0  0  0  0
   -1.0500   -4.3792    0.0000 C   0  0  0  0  0  0  0  0  0  0  0  0
    7.5042   -3.5292    0.0000 C   0  0  0  0  0  0  0  0  0  0  0  0
    6.8000   -2.2875    0.0000 C   0  0  0  0  0  0  0  0  0  0  0  0
    7.5167   -2.7000    0.0000 C   0  0  0  0  0  0  0  0  0  0  0  0
  2  5  1  0  0  0  0
  3  1  1  0  0  0  0
  4  1  1  0  0  0  0
  5  3  1  0  0  0  0
  6 10  1  0  0  0  0
  7  1  2  0  0  0  0
  8  2  2  0  0  0  0
  9  6  1  0  0  0  0
 10  2  1  0  0  0  0
 11  9  1  0  0  0  0
 12  4  1  0  0  0  0
 13  9  2  0  0  0  0
 14 11  1  0  0  0  0
 15 11  2  0  0  0  0
 16 12  2  0  0  0  0
 17 12  1  0  0  0  0
 18 19  2  0  0  0  0
 19 13  1  0  0  0  0
 20 16  1  0  0  0  0
 21 17  2  0  0  0  0
 22 21  1  0  0  0  0
 20 22  2  0  0  0  0
 15 18  1  0  0  0  0
M  END
> <#>
786

> <PLATE>
LAT010

> <ROW>
B

> <COL>
10

> <COORD>
B10

> <LATID>
LAT010B10

> <Supplier>
Chembridge

> <Suplier_CAT#>
5624117

> <Name>
Novel

> <Sec_Name>
189_H08

> <Concentration_(mM)>
2.5

> <IC50_(µM)>
25

> <Yeast_Active?>
-

> <Pubchem_CID>
724155

$$$$
