
  -ISIS-  08130814242D

 22 24  0  0  0  0  0  0  0  0999 V2000
    5.6167   -1.9667    0.0000 S   0  0  3  0  0  0  0  0  0  0  0  0
    7.8875   -2.4875    0.0000 C   0  0  0  0  0  0  0  0  0  0  0  0
    6.5250   -1.9625    0.0000 N   0  0  0  0  0  0  0  0  0  0  0  0
    8.6917   -1.9125    0.0000 N   0  0  3  0  0  0  0  0  0  0  0  0
    8.1792   -3.4292    0.0000 C   0  0  0  0  0  0  0  0  0  0  0  0
    9.5042   -2.4875    0.0000 N   0  0  0  0  0  0  0  0  0  0  0  0
    4.7125   -1.9667    0.0000 C   0  0  0  0  0  0  0  0  0  0  0  0
    5.6125   -2.8750    0.0000 O   0  0  0  0  0  0  0  0  0  0  0  0
    5.6250   -1.0542    0.0000 O   0  0  0  0  0  0  0  0  0  0  0  0
    9.2125   -3.4292    0.0000 C   0  0  0  0  0  0  0  0  0  0  0  0
    8.6875   -0.9125    0.0000 C   0  0  0  0  0  0  0  0  0  0  0  0
    4.1792   -1.1167    0.0000 C   0  0  0  0  0  0  0  0  0  0  0  0
    4.2375   -2.8500    0.0000 C   0  0  0  0  0  0  0  0  0  0  0  0
    2.7125   -1.9667    0.0000 C   0  0  0  0  0  0  0  0  0  0  0  0
    1.8417   -1.9667    0.0000 N   0  0  0  0  0  0  0  0  0  0  0  0
    3.1792   -1.1167    0.0000 C   0  0  0  0  0  0  0  0  0  0  0  0
    3.2375   -2.8500    0.0000 C   0  0  0  0  0  0  0  0  0  0  0  0
    9.5542   -0.4125    0.0000 C   0  0  0  0  0  0  0  0  0  0  0  0
    7.8167   -0.4250    0.0000 C   0  0  0  0  0  0  0  0  0  0  0  0
    7.8125    0.5750    0.0000 C   0  0  0  0  0  0  0  0  0  0  0  0
    9.5500    0.5833    0.0000 C   0  0  0  0  0  0  0  0  0  0  0  0
    8.6792    1.0833    0.0000 C   0  0  0  0  0  0  0  0  0  0  0  0
  2  3  1  0  0  0  0
  3  1  1  0  0  0  0
  4  2  1  0  0  0  0
  5  2  2  0  0  0  0
  6  4  1  0  0  0  0
  7  1  1  0  0  0  0
  8  1  2  0  0  0  0
  9  1  2  0  0  0  0
 10  5  1  0  0  0  0
 11  4  1  0  0  0  0
 12  7  2  0  0  0  0
 13  7  1  0  0  0  0
 14 17  1  0  0  0  0
 15 14  1  0  0  0  0
 16 12  1  0  0  0  0
 17 13  2  0  0  0  0
 18 11  2  0  0  0  0
 19 11  1  0  0  0  0
 20 19  2  0  0  0  0
 21 18  1  0  0  0  0
 22 20  1  0  0  0  0
 16 14  2  0  0  0  0
 10  6  2  0  0  0  0
 21 22  2  0  0  0  0
M  END
> <#>
274

> <PLATE>
LAT004

> <ROW>
B

> <COL>
6

> <COORD>
B06

> <LATID>
LAT004B06

> <Supplier>
Sigma

> <Suplier_CAT#>
S 0758

> <Name>
Sulfaphenazole

> <Concentration_(mM)>
2.5

> <IC50_(µM)>
2.5

> <Yeast_Active?>
-

> <Pubchem_CID>
5335

> <Description>
Antibacterial; inhibitor of cytochrome P4502C enzymes

$$$$
