
  -ISIS-  08130814242D

  4  0  0  0  0  0  0  0  0  0999 V2000
    6.5809   -3.0915    0.0000 Gd  0  1  0  0  0  0  0  0  0  0  0  0
    6.5809   -2.1992    0.0000 Cl  0  5  0  0  0  0  0  0  0  0  0  0
    5.8081   -3.5377    0.0000 Cl  0  5  0  0  0  0  0  0  0  0  0  0
    7.3537   -3.5377    0.0000 Cl  0  5  0  0  0  0  0  0  0  0  0  0
M  CHG  4   1   3   2  -1   3  -1   4  -1
M  END
> <#>
533

> <PLATE>
LAT007

> <ROW>
E

> <COL>
8

> <COORD>
E08

> <LATID>
LAT007E08

> <Supplier>
Aldrich

> <Suplier_CAT#>
20,328-9

> <Name>
Gadolinium (III) Chloride Hexahydrate

> <Concentration_(mM)>
25

> <IC50_(µM)>
470

> <Yeast_Active?>
-

> <Pubchem_CID>
197915

$$$$
