
  -ISIS-  08130814242D

 27 28  0  0  0  0  0  0  0  0999 V2000
    3.1875    0.6500    0.0000 C   0  0  3  0  0  0  0  0  0  0  0  0
   -0.6458    1.0708    0.0000 C   0  0  0  0  0  0  0  0  0  0  0  0
    0.1167    0.6333    0.0000 N   0  0  0  0  0  0  0  0  0  0  0  0
   -1.4000    0.6333    0.0000 C   0  0  3  0  0  0  0  0  0  0  0  0
    2.4167    1.0708    0.0000 C   0  0  0  0  0  0  0  0  0  0  0  0
   -2.9458    0.6333    0.0000 C   0  0  0  0  0  0  0  0  0  0  0  0
   -0.6458   -0.6875    0.0000 C   0  0  0  0  0  0  0  0  0  0  0  0
   -2.1833    1.0708    0.0000 C   0  0  0  0  0  0  0  0  0  0  0  0
   -1.4000   -0.2500    0.0000 C   0  0  0  0  0  0  0  0  0  0  0  0
    0.8792    1.0625    0.0000 C   0  0  0  0  0  0  0  0  0  0  0  0
    1.6292    0.6208    0.0000 C   0  0  0  0  0  0  0  0  0  0  0  0
   -0.6458    1.9583    0.0000 O   0  0  0  0  0  0  0  0  0  0  0  0
    0.1167   -0.2500    0.0000 O   0  0  0  0  0  0  0  0  0  0  0  0
    3.9875    0.2958    0.0000 F   0  0  0  0  0  0  0  0  0  0  0  0
    3.1875   -0.3042    0.0000 F   0  0  0  0  0  0  0  0  0  0  0  0
    3.8667    1.1208    0.0000 F   0  0  0  0  0  0  0  0  0  0  0  0
   -4.4708    0.6333    0.0000 C   0  0  0  0  0  0  0  0  0  0  0  0
   -3.7000   -0.6875    0.0000 C   0  0  0  0  0  0  0  0  0  0  0  0
   -2.9458   -0.2500    0.0000 C   0  0  0  0  0  0  0  0  0  0  0  0
   -3.7000    1.0708    0.0000 C   0  0  0  0  0  0  0  0  0  0  0  0
   -4.4708   -0.2500    0.0000 C   0  0  0  0  0  0  0  0  0  0  0  0
   -0.6458   -1.5875    0.0000 O   0  0  0  0  0  0  0  0  0  0  0  0
    2.4167    1.9583    0.0000 C   0  0  0  0  0  0  0  0  0  0  0  0
    1.6500    2.4125    0.0000 C   0  0  0  0  0  0  0  0  0  0  0  0
    0.8667    1.9625    0.0000 C   0  0  0  0  0  0  0  0  0  0  0  0
   -5.2208    1.0500    0.0000 C   0  0  0  0  0  0  0  0  0  0  0  0
   -3.7000   -1.5542    0.0000 C   0  0  0  0  0  0  0  0  0  0  0  0
  2  3  1  0  0  0  0
  3 10  1  0  0  0  0
  4  2  1  0  0  0  0
  5  1  1  0  0  0  0
  6  8  1  0  0  0  0
  7  9  1  0  0  0  0
  8  4  1  0  0  0  0
  9  4  1  0  0  0  0
 10 11  2  0  0  0  0
 11  5  1  0  0  0  0
 12  2  2  0  0  0  0
 13  7  2  0  0  0  0
 14  1  1  0  0  0  0
 15  1  1  0  0  0  0
 16  1  1  0  0  0  0
 17 20  2  0  0  0  0
 18 19  1  0  0  0  0
 19  6  2  0  0  0  0
 20  6  1  0  0  0  0
 21 17  1  0  0  0  0
 22  7  1  0  0  0  0
 23  5  2  0  0  0  0
 24 23  1  0  0  0  0
 25 24  2  0  0  0  0
 26 17  1  0  0  0  0
 27 18  1  0  0  0  0
 10 25  1  0  0  0  0
 18 21  2  0  0  0  0
M  END
> <#>
832

> <PLATE>
LAT011

> <ROW>
H

> <COL>
5

> <COORD>
H05

> <LATID>
LAT011H05

> <Supplier>
Chembridge

> <Suplier_CAT#>
5632563

> <Name>
Novel

> <Sec_Name>
193_B05

> <Concentration_(mM)>
2.5

> <IC50_(µM)>
46

> <Yeast_Active?>
-

> <Pubchem_CID>
1083499

$$$$
