
  -ISIS-  08130814242D

  9  9  0  0  0  0  0  0  0  0999 V2000
    3.1170    1.0054    0.0000 N   0  0  0  0  0  0  0  0  0  0  0  0
    3.7420   -0.0771    0.0000 C   0  0  0  0  0  0  0  0  0  0  0  0
    4.9920   -0.0771    0.0000 S   0  0  0  0  0  0  0  0  0  0  0  0
    3.1170   -1.1596    0.0000 N   0  0  0  0  0  0  0  0  0  0  0  0
    1.8670   -1.1596    0.0000 C   0  0  0  0  0  0  0  0  0  0  0  0
    1.2420   -2.2421    0.0000 O   0  0  0  0  0  0  0  0  0  0  0  0
    1.2420   -0.0771    0.0000 C   0  0  0  0  0  0  0  0  0  0  0  0
    1.8670    1.0055    0.0000 C   0  0  0  0  0  0  0  0  0  0  0  0
    1.2420    2.0880    0.0000 O   0  0  0  0  0  0  0  0  0  0  0  0
  1  2  1  0  0  0  0
  2  3  2  0  0  0  0
  2  4  1  0  0  0  0
  4  5  1  0  0  0  0
  5  6  2  0  0  0  0
  5  7  1  0  0  0  0
  7  8  1  0  0  0  0
  8  9  2  0  0  0  0
  1  8  1  0  0  0  0
M  END
> <#>
315

> <PLATE>
LAT004

> <ROW>
C

> <COL>
11

> <COORD>
C11

> <LATID>
LAT004C11

> <Supplier>
ICN

> <Suplier_CAT#>
190284

> <Name>
2-Thiobarbituric Acid

> <Concentration_(mM)>
2.5

> <IC50_(µM)>
inactive

> <Yeast_Active?>
-

> <Pubchem_CID>
2723628

$$$$
