
  -ISIS-  08130814242D

 17 18  0  0  0  0  0  0  0  0999 V2000
    0.5667    0.5958    0.0000 C   0  0  0  0  0  0  0  0  0  0  0  0
   -0.5500    1.6000    0.0000 N   0  0  0  0  0  0  0  0  0  0  0  0
   -2.1125    0.6208    0.0000 C   0  0  0  0  0  0  0  0  0  0  0  0
   -3.1708    0.0208    0.0000 C   0  0  0  0  0  0  0  0  0  0  0  0
    0.6000   -0.7292    0.0000 S   0  0  0  0  0  0  0  0  0  0  0  0
    1.9667    1.3125    0.0000 N   0  0  0  0  0  0  0  0  0  0  0  0
    4.2375    0.4333    0.0000 C   0  0  0  0  0  0  0  0  0  0  0  0
    5.2375   -0.2167    0.0000 C   0  0  0  0  0  0  0  0  0  0  0  0
   -3.1708   -1.2000    0.0000 C   0  0  0  0  0  0  0  0  0  0  0  0
   -1.0833    0.0208    0.0000 C   0  0  0  0  0  0  0  0  0  0  0  0
    2.8792    0.2833    0.0000 C   0  0  0  0  0  0  0  0  0  0  0  0
   -1.0833   -1.1792    0.0000 C   0  0  0  0  0  0  0  0  0  0  0  0
   -4.2083    0.6208    0.0000 C   0  0  0  0  0  0  0  0  0  0  0  0
   -2.1125   -1.8000    0.0000 C   0  0  0  0  0  0  0  0  0  0  0  0
   -4.2083   -1.8000    0.0000 C   0  0  0  0  0  0  0  0  0  0  0  0
   -5.2708    0.0208    0.0000 C   0  0  0  0  0  0  0  0  0  0  0  0
   -5.2708   -1.1792    0.0000 C   0  0  0  0  0  0  0  0  0  0  0  0
  2  1  1  0  0  0  0
  3  2  1  0  0  0  0
  4  3  1  0  0  0  0
  5  1  2  0  0  0  0
  6  1  1  0  0  0  0
  7 11  1  0  0  0  0
  8  7  2  0  0  0  0
  9  4  2  0  0  0  0
 10  3  2  0  0  0  0
 11  6  1  0  0  0  0
 12 10  1  0  0  0  0
 13  4  1  0  0  0  0
 14 12  2  0  0  0  0
 15  9  1  0  0  0  0
 16 13  2  0  0  0  0
 17 16  1  0  0  0  0
 14  9  1  0  0  0  0
 15 17  2  0  0  0  0
M  END
> <#>
686

> <PLATE>
LAT009

> <ROW>
F

> <COL>
7

> <COORD>
F07

> <LATID>
LAT009F07

> <Supplier>
Chembridge

> <Suplier_CAT#>
5552644

> <Name>
Novel

> <Sec_Name>
167_H11

> <Concentration_(mM)>
2.5

> <IC50_(µM)>
72

> <Yeast_Active?>
-

> <Pubchem_CID>
1550878

$$$$
