
  -ISIS-  08130814242D

 43 44  0  0  0  0  0  0  0  0999 V2000
    4.0792   -2.7417    0.0000 Na  0  3  0  0  0  0  0  0  0  0  0  0
    9.1042   -4.8542    0.0000 O   0  0  0  0  0  0  0  0  0  0  0  0
    2.4792   -3.6417    0.0000 C   0  0  0  0  0  0  0  0  0  0  0  0
    7.5000   -4.0417    0.0000 C   0  0  0  0  0  0  0  0  0  0  0  0
    8.9292   -4.0417    0.0000 C   0  0  3  0  0  0  0  0  0  0  0  0
    9.9167   -4.9292    0.0000 C   0  0  3  0  0  0  0  0  0  0  0  0
    8.2125   -3.6292    0.0000 C   0  0  1  0  0  0  0  0  0  0  0  0
    6.7792   -3.6292    0.0000 C   0  0  3  0  0  0  0  0  0  0  0  0
    9.3542   -6.4292    0.0000 O   0  0  0  0  0  0  0  0  0  0  0  0
    2.4792   -2.8167    0.0000 C   0  0  0  0  0  0  0  0  0  0  0  0
    1.7667   -4.0542    0.0000 C   0  0  0  0  0  0  0  0  0  0  0  0
    9.8375   -5.7542    0.0000 C   0  0  3  0  0  0  0  0  0  0  0  0
    9.6417   -3.6292    0.0000 C   0  0  2  0  0  0  0  0  0  0  0  0
   10.2625   -4.1917    0.0000 C   0  0  0  0  0  0  0  0  0  0  0  0
    6.0667   -4.0417    0.0000 C   0  0  2  0  0  0  0  0  0  0  0  0
   10.5167   -7.2667    0.0000 C   0  0  1  0  0  0  0  0  0  0  0  0
    9.6917   -7.1917    0.0000 C   0  0  2  0  0  0  0  0  0  0  0  0
    3.1917   -4.0542    0.0000 C   0  0  0  0  0  0  0  0  0  0  0  0
    7.5000   -4.8667    0.0000 O   0  0  0  0  0  0  0  0  0  0  0  0
    1.7667   -4.8917    0.0000 C   0  0  0  0  0  0  0  0  0  0  0  0
    3.1917   -2.4042    0.0000 O   0  5  0  0  0  0  0  0  0  0  0  0
    1.7667   -2.4042    0.0000 O   0  0  0  0  0  0  0  0  0  0  0  0
   11.0042   -6.5917    0.0000 C   0  0  0  0  0  0  0  0  0  0  0  0
   10.6625   -5.8417    0.0000 C   0  0  0  0  0  0  0  0  0  0  0  0
    3.9167   -3.6417    0.0000 C   0  0  0  0  0  0  0  0  0  0  0  0
    3.1917   -4.8917    0.0000 C   0  0  0  0  0  0  0  0  0  0  0  0
    2.4792   -5.3042    0.0000 C   0  0  0  0  0  0  0  0  0  0  0  0
    4.6375   -4.0542    0.0000 C   0  0  0  0  0  0  0  0  0  0  0  0
    5.3500   -3.6292    0.0000 C   0  0  1  0  0  0  0  0  0  0  0  0
    1.0417   -3.6417    0.0000 O   0  0  0  0  0  0  0  0  0  0  0  0
   11.3042   -7.5167    0.0000 O   0  0  0  0  0  0  0  0  0  0  0  0
    6.0792   -4.8667    0.0000 O   0  0  0  0  0  0  0  0  0  0  0  0
   10.7375   -4.8042    0.0000 C   0  0  0  0  0  0  0  0  0  0  0  0
    8.2125   -2.8042    0.0000 C   0  0  0  0  0  0  0  0  0  0  0  0
    6.7792   -2.8042    0.0000 C   0  0  0  0  0  0  0  0  0  0  0  0
   10.3500   -8.0792    0.0000 C   0  0  0  0  0  0  0  0  0  0  0  0
    9.7292   -2.8042    0.0000 C   0  0  0  0  0  0  0  0  0  0  0  0
    9.2042   -7.8667    0.0000 C   0  0  0  0  0  0  0  0  0  0  0  0
    1.0417   -5.3042    0.0000 C   0  0  0  0  0  0  0  0  0  0  0  0
    5.3417   -2.8042    0.0000 C   0  0  0  0  0  0  0  0  0  0  0  0
   11.2625   -5.4417    0.0000 C   0  0  0  0  0  0  0  0  0  0  0  0
    7.5000   -2.3917    0.0000 C   0  0  0  0  0  0  0  0  0  0  0  0
    9.5667   -8.3417    0.0000 C   0  0  0  0  0  0  0  0  0  0  0  0
  3 18  1  0  0  0  0
  4  7  1  0  0  0  0
  5  2  1  0  0  0  0
  6  2  1  0  0  0  0
  7  5  1  0  0  0  0
  8  4  1  0  0  0  0
  9 12  1  0  0  0  0
 10  3  1  0  0  0  0
 11  3  2  0  0  0  0
 12  6  1  0  0  0  0
 13  5  1  0  0  0  0
 14  6  1  0  0  0  0
 15  8  1  0  0  0  0
 16 23  1  0  0  0  0
 17  9  1  0  0  0  0
 18 25  1  0  0  0  0
 19  4  2  0  0  0  0
 20 27  2  0  0  0  0
 21 10  1  0  0  0  0
 22 10  2  0  0  0  0
 23 24  1  0  0  0  0
 24 12  1  0  0  0  0
 25 28  1  0  0  0  0
 26 18  2  0  0  0  0
 27 26  1  0  0  0  0
 28 29  1  0  0  0  0
 29 15  1  0  0  0  0
 30 11  1  0  0  0  0
 16 31  1  1  0  0  0
 15 32  1  1  0  0  0
 33  6  1  6  0  0  0
  7 34  1  6  0  0  0
 35  8  1  6  0  0  0
 36 16  1  6  0  0  0
 13 37  1  1  0  0  0
 17 38  1  6  0  0  0
 39 20  1  0  0  0  0
 29 40  1  1  0  0  0
 41 33  1  0  0  0  0
 42 34  1  0  0  0  0
 43 36  1  0  0  0  0
 14 13  1  0  0  0  0
 16 17  1  0  0  0  0
 20 11  1  0  0  0  0
M  CHG  2   1   1  21  -1
M  END
> <#>
73

> <PLATE>
LAT001

> <ROW>
A

> <COL>
11

> <COORD>
A11

> <LATID>
LAT001A11

> <Supplier>
Microsource

> <Suplier_CAT#>
01503244

> <Name>
Lasalocid Sodium

> <Concentration_(mM)>
2.5

> <IC50_(µM)>
0.41

> <Yeast_Active?>
-

> <Pubchem_CID>
2724110

> <Description>
Antibiotic

> <Source>
Natural Product; ex Streptomyces lasaliensis

$$$$
