
  -ISIS-  08130814242D

 33 35  0  0  0  0  0  0  0  0999 V2000
   11.0625   -2.9292    0.0000 N   0  0  0  0  0  0  0  0  0  0  0  0
   10.3500   -1.6917    0.0000 N   0  0  0  0  0  0  0  0  0  0  0  0
    9.6333   -2.9292    0.0000 C   0  0  0  0  0  0  0  0  0  0  0  0
    9.6333   -2.1042    0.0000 C   0  0  0  0  0  0  0  0  0  0  0  0
   10.3500   -3.3417    0.0000 C   0  0  0  0  0  0  0  0  0  0  0  0
   11.0625   -2.1042    0.0000 C   0  0  0  0  0  0  0  0  0  0  0  0
    8.9167   -3.3417    0.0000 N   0  0  0  0  0  0  0  0  0  0  0  0
    3.9042   -4.5625    0.0000 C   0  0  0  0  0  0  0  0  0  0  0  0
    8.9167   -1.6917    0.0000 N   0  0  0  0  0  0  0  0  0  0  0  0
    2.8875   -4.4167    0.0000 N   0  0  0  0  0  0  0  0  0  0  0  0
    8.2042   -2.9292    0.0000 C   0  0  0  0  0  0  0  0  0  0  0  0
    3.0250   -3.0958    0.0000 C   0  0  0  0  0  0  0  0  0  0  0  0
    6.7667   -2.9167    0.0000 N   0  0  3  0  0  0  0  0  0  0  0  0
    2.5000   -3.7250    0.0000 C   0  0  1  0  0  0  0  0  0  0  0  0
    4.6250   -4.1542    0.0000 C   0  0  0  0  0  0  0  0  0  0  0  0
    7.4875   -3.3292    0.0000 C   0  0  0  0  0  0  0  0  0  0  0  0
    0.3667   -4.0208    0.0000 C   0  0  0  0  0  0  0  0  0  0  0  0
    6.0500   -3.3292    0.0000 C   0  0  0  0  0  0  0  0  0  0  0  0
    3.9042   -5.3875    0.0000 O   0  0  0  0  0  0  0  0  0  0  0  0
    2.6125   -2.3917    0.0000 O   0  0  0  0  0  0  0  0  0  0  0  0
    8.2042   -2.1042    0.0000 C   0  0  0  0  0  0  0  0  0  0  0  0
    0.2125   -3.1875    0.0000 O   0  0  0  0  0  0  0  0  0  0  0  0
   10.3417   -4.1667    0.0000 N   0  0  0  0  0  0  0  0  0  0  0  0
    5.3458   -4.5625    0.0000 C   0  0  0  0  0  0  0  0  0  0  0  0
    4.6250   -3.3292    0.0000 C   0  0  0  0  0  0  0  0  0  0  0  0
    6.0542   -4.1500    0.0000 C   0  0  0  0  0  0  0  0  0  0  0  0
    5.3375   -2.9167    0.0000 C   0  0  0  0  0  0  0  0  0  0  0  0
   11.7750   -1.6875    0.0000 N   0  0  0  0  0  0  0  0  0  0  0  0
    1.6750   -3.6708    0.0000 C   0  0  0  0  0  0  0  0  0  0  0  0
    1.1417   -4.3125    0.0000 C   0  0  0  0  0  0  0  0  0  0  0  0
    3.8167   -3.3042    0.0000 O   0  0  0  0  0  0  0  0  0  0  0  0
   -0.2667   -4.5500    0.0000 O   0  0  0  0  0  0  0  0  0  0  0  0
    6.7667   -2.0917    0.0000 C   0  0  0  0  0  0  0  0  0  0  0  0
  2  6  2  0  0  0  0
  3  5  1  0  0  0  0
  4  2  1  0  0  0  0
  5  1  2  0  0  0  0
  6  1  1  0  0  0  0
  7  3  1  0  0  0  0
  8 15  1  0  0  0  0
  9  4  1  0  0  0  0
 10  8  1  0  0  0  0
 11  7  2  0  0  0  0
 12 14  1  0  0  0  0
 13 16  1  0  0  0  0
 14 10  1  0  0  0  0
 15 25  2  0  0  0  0
 16 11  1  0  0  0  0
 17 30  1  0  0  0  0
 18 13  1  0  0  0  0
 19  8  2  0  0  0  0
 20 12  2  0  0  0  0
 21  9  2  0  0  0  0
 22 17  2  0  0  0  0
 23  5  1  0  0  0  0
 24 26  2  0  0  0  0
 25 27  1  0  0  0  0
 26 18  1  0  0  0  0
 27 18  2  0  0  0  0
 28  6  1  0  0  0  0
 14 29  1  6  0  0  0
 30 29  1  0  0  0  0
 31 12  1  0  0  0  0
 32 17  1  0  0  0  0
 33 13  1  0  0  0  0
  3  4  2  0  0  0  0
 11 21  1  0  0  0  0
 15 24  1  0  0  0  0
M  END
> <#>
200

> <PLATE>
LAT003

> <ROW>
H

> <COL>
6

> <COORD>
H06

> <LATID>
LAT003H06

> <Supplier>
Sigma

> <Suplier_CAT#>
A 9898

> <Name>
(-)Amethopterin

> <Concentration_(mM)>
2.5

> <IC50_(µM)>
0.11

> <Yeast_Active?>
-

> <Pubchem_CID>
4112

> <Description>
Inactive isomer of amethopretin, a folic acid antagonist

$$$$
