
  -ISIS-  08130814242D

 17 19  0  0  0  0  0  0  0  0999 V2000
    3.4375   -2.2375    0.0000 C   0  0  0  0  0  0  0  0  0  0  0  0
    3.2292   -1.6042    0.0000 N   0  0  0  0  0  0  0  0  0  0  0  0
    2.5750   -1.6042    0.0000 C   0  0  0  0  0  0  0  0  0  0  0  0
    2.3667   -2.2375    0.0000 N   0  0  3  0  0  0  0  0  0  0  0  0
    2.9000   -2.6167    0.0000 C   0  0  0  0  0  0  0  0  0  0  0  0
    4.0667   -2.4375    0.0000 C   0  0  0  0  0  0  0  0  0  0  0  0
    2.1292   -1.1125    0.0000 C   0  0  0  0  0  0  0  0  0  0  0  0
    1.7250   -2.3750    0.0000 C   0  0  0  0  0  0  0  0  0  0  0  0
    1.4792   -1.2542    0.0000 C   0  0  0  0  0  0  0  0  0  0  0  0
    1.2792   -1.8792    0.0000 C   0  0  0  0  0  0  0  0  0  0  0  0
    4.5542   -2.0000    0.0000 C   0  0  0  0  0  0  0  0  0  0  0  0
    4.4167   -1.3500    0.0000 Cl  0  0  0  0  0  0  0  0  0  0  0  0
    4.2042   -3.0917    0.0000 C   0  0  0  0  0  0  0  0  0  0  0  0
    0.9792   -0.6917    0.0000 C   0  0  0  0  0  0  0  0  0  0  0  0
    5.1875   -2.2000    0.0000 C   0  0  0  0  0  0  0  0  0  0  0  0
    4.8375   -3.2917    0.0000 C   0  0  0  0  0  0  0  0  0  0  0  0
    5.3250   -2.8500    0.0000 C   0  0  0  0  0  0  0  0  0  0  0  0
  2  1  1  0  0  0  0
  3  2  2  0  0  0  0
  4  5  1  0  0  0  0
  5  1  2  0  0  0  0
  6  1  1  0  0  0  0
  7  3  1  0  0  0  0
  8  4  1  0  0  0  0
  9  7  2  0  0  0  0
 10  8  2  0  0  0  0
 11  6  2  0  0  0  0
 12 11  1  0  0  0  0
 13  6  1  0  0  0  0
 14  9  1  0  0  0  0
 15 11  1  0  0  0  0
 16 13  2  0  0  0  0
 17 16  1  0  0  0  0
  3  4  1  0  0  0  0
 17 15  2  0  0  0  0
  9 10  1  0  0  0  0
M  END
> <#>
920

> <PLATE>
LAT012

> <ROW>
H

> <COL>
6

> <COORD>
H06

> <LATID>
LAT012H06

> <Supplier>
Chembridge

> <Suplier_CAT#>
5691506

> <Name>
Novel

> <Sec_Name>
223_E02

> <Concentration_(mM)>
2.5

> <IC50_(µM)>
76

> <Yeast_Active?>
-

> <Pubchem_CID>
868216

$$$$
