
  -ISIS-  08130814242D

 17 17  0  0  0  0  0  0  0  0999 V2000
    0.0167   -2.1500    0.0000 C   0  0  0  0  0  0  0  0  0  0  0  0
    0.7292   -1.7292    0.0000 N   0  0  0  0  0  0  0  0  0  0  0  0
    1.4500   -2.1375    0.0000 N   0  0  0  0  0  0  0  0  0  0  0  0
   -1.3958   -2.1500    0.0000 S   0  0  0  0  0  0  0  0  0  0  0  0
   -0.6833   -1.7375    0.0000 C   0  0  3  0  0  0  0  0  0  0  0  0
    0.0167   -2.9667    0.0000 O   0  0  0  0  0  0  0  0  0  0  0  0
    2.1500   -1.7167    0.0000 C   0  0  0  0  0  0  0  0  0  0  0  0
   -2.1125   -1.7375    0.0000 C   0  0  0  0  0  0  0  0  0  0  0  0
   -0.6833   -0.9042    0.0000 C   0  0  0  0  0  0  0  0  0  0  0  0
    2.8667   -2.1167    0.0000 C   0  0  0  0  0  0  0  0  0  0  0  0
    2.1292   -0.9000    0.0000 C   0  0  0  0  0  0  0  0  0  0  0  0
   -2.1125   -0.9167    0.0000 C   0  0  0  0  0  0  0  0  0  0  0  0
   -2.8208   -2.1500    0.0000 C   0  0  0  0  0  0  0  0  0  0  0  0
    3.5792   -1.7000    0.0000 C   0  0  0  0  0  0  0  0  0  0  0  0
   -2.8208   -0.5000    0.0000 C   0  0  0  0  0  0  0  0  0  0  0  0
   -3.5333   -1.7375    0.0000 C   0  0  0  0  0  0  0  0  0  0  0  0
   -3.5333   -0.9167    0.0000 C   0  0  0  0  0  0  0  0  0  0  0  0
  2  1  1  0  0  0  0
  3  2  1  0  0  0  0
  4  5  1  0  0  0  0
  5  1  1  0  0  0  0
  6  1  2  0  0  0  0
  7  3  2  0  0  0  0
  8  4  1  0  0  0  0
  9  5  1  0  0  0  0
 10  7  1  0  0  0  0
 11  7  1  0  0  0  0
 12  8  1  0  0  0  0
 13  8  2  0  0  0  0
 14 10  1  0  0  0  0
 15 12  2  0  0  0  0
 16 13  1  0  0  0  0
 17 16  2  0  0  0  0
 15 17  1  0  0  0  0
M  END
> <#>
767

> <PLATE>
LAT010

> <ROW>
G

> <COL>
7

> <COORD>
G07

> <LATID>
LAT010G07

> <Supplier>
Chembridge

> <Suplier_CAT#>
5609896

> <Name>
Novel

> <Sec_Name>
184_E10

> <Concentration_(mM)>
2.5

> <IC50_(µM)>
90

> <Yeast_Active?>
-

> <Pubchem_CID>
2855229

$$$$
