
  -ISIS-  08130814242D

 24 26  0  0  0  0  0  0  0  0999 V2000
    0.9792   -0.8167    0.0000 C   0  0  0  0  0  0  0  0  0  0  0  0
    2.2792   -0.8167    0.0000 C   0  0  0  0  0  0  0  0  0  0  0  0
    3.5792   -0.8167    0.0000 N   0  0  0  0  0  0  0  0  0  0  0  0
    5.5292   -1.9375    0.0000 C   0  0  0  0  0  0  0  0  0  0  0  0
    0.9792   -1.5667    0.0000 C   0  0  0  0  0  0  0  0  0  0  0  0
    1.6292   -0.4375    0.0000 C   0  0  0  0  0  0  0  0  0  0  0  0
    6.1792   -1.5667    0.0000 C   0  0  0  0  0  0  0  0  0  0  0  0
    2.9292   -0.4375    0.0000 N   0  0  0  0  0  0  0  0  0  0  0  0
    4.8792   -1.5667    0.0000 C   0  0  0  0  0  0  0  0  0  0  0  0
    2.2792   -1.5667    0.0000 O   0  0  0  0  0  0  0  0  0  0  0  0
    6.1792   -0.8167    0.0000 C   0  0  0  0  0  0  0  0  0  0  0  0
    4.2292   -0.4375    0.0000 C   0  0  0  0  0  0  0  0  0  0  0  0
    0.3292   -1.9375    0.0000 C   0  0  0  0  0  0  0  0  0  0  0  0
    4.8792   -0.8167    0.0000 C   0  0  0  0  0  0  0  0  0  0  0  0
    5.5292   -2.6875    0.0000 O   0  0  0  0  0  0  0  0  0  0  0  0
    5.5292   -0.4375    0.0000 C   0  0  0  0  0  0  0  0  0  0  0  0
    6.8292   -1.9375    0.0000 O   0  0  0  0  0  0  0  0  0  0  0  0
    0.3292   -0.4375    0.0000 C   0  0  0  0  0  0  0  0  0  0  0  0
   -0.3125   -0.8167    0.0000 C   0  0  0  0  0  0  0  0  0  0  0  0
    1.6292   -1.9375    0.0000 C   0  0  0  0  0  0  0  0  0  0  0  0
   -0.3125   -1.5667    0.0000 C   0  0  0  0  0  0  0  0  0  0  0  0
    0.3292   -2.6875    0.0000 C   0  0  0  0  0  0  0  0  0  0  0  0
    1.6292   -2.6875    0.0000 C   0  0  0  0  0  0  0  0  0  0  0  0
    0.9792   -3.0667    0.0000 C   0  0  0  0  0  0  0  0  0  0  0  0
  2  6  1  0  0  0  0
  3  8  1  0  0  0  0
  4  9  2  0  0  0  0
  5  1  2  0  0  0  0
  6  1  1  0  0  0  0
  7 11  2  0  0  0  0
  8  2  1  0  0  0  0
  9 14  1  0  0  0  0
 10  2  2  0  0  0  0
 11 16  1  0  0  0  0
 12  3  2  0  0  0  0
 13  5  1  0  0  0  0
 14 12  1  0  0  0  0
 15  4  1  0  0  0  0
 16 14  2  0  0  0  0
 17  7  1  0  0  0  0
 18  1  1  0  0  0  0
 19 18  2  0  0  0  0
 20  5  1  0  0  0  0
 21 19  1  0  0  0  0
 22 13  1  0  0  0  0
 23 20  2  0  0  0  0
 24 23  1  0  0  0  0
 13 21  2  0  0  0  0
 24 22  2  0  0  0  0
  7  4  1  0  0  0  0
M  END
> <#>
659

> <PLATE>
LAT009

> <ROW>
C

> <COL>
4

> <COORD>
C04

> <LATID>
LAT009C04

> <Supplier>
Chembridge

> <Suplier_CAT#>
5527548

> <Name>
Novel

> <Sec_Name>
150_E06

> <Concentration_(mM)>
2.5

> <IC50_(µM)>
>100

> <Yeast_Active?>
-

> <Pubchem_CID>
NULL

$$$$
