
  -ISIS-  08130814242D

 11 11  0  0  0  0  0  0  0  0999 V2000
   -1.3792   -1.4207    0.0000 C   0  0  0  0  0  0  0  0  0  0  0  0
   -2.6292   -1.4207    0.0000 C   0  0  2  0  0  0  0  0  0  0  0  0
   -3.2542   -0.3381    0.0000 C   0  0  1  0  0  0  0  0  0  0  0  0
   -2.6292    0.7444    0.0000 C   0  0  2  0  0  0  0  0  0  0  0  0
   -1.3792    0.7444    0.0000 O   0  0  0  0  0  0  0  0  0  0  0  0
   -0.7542   -0.3381    0.0000 C   0  0  3  0  0  0  0  0  0  0  0  0
    0.4958   -0.3381    0.0000 O   0  0  0  0  0  0  0  0  0  0  0  0
   -3.2542    1.8269    0.0000 C   0  0  0  0  0  0  0  0  0  0  0  0
   -2.6292    2.9095    0.0000 O   0  0  0  0  0  0  0  0  0  0  0  0
   -4.5042   -0.3381    0.0000 O   0  0  0  0  0  0  0  0  0  0  0  0
   -3.2542   -2.5032    0.0000 O   0  0  0  0  0  0  0  0  0  0  0  0
  1  2  1  0  0  0  0
  2  3  1  0  0  0  0
  3  4  1  0  0  0  0
  4  5  1  0  0  0  0
  5  6  1  0  0  0  0
  1  6  1  0  0  0  0
  6  7  1  0  0  0  0
  4  8  1  1  0  0  0
  8  9  1  0  0  0  0
  3 10  1  6  0  0  0
  2 11  1  1  0  0  0
M  END
> <#>
412

> <PLATE>
LAT006

> <ROW>
D

> <COL>
3

> <COORD>
D03

> <LATID>
LAT006D03

> <Supplier>
Sigma

> <Suplier_CAT#>
D-8375

> <Name>
2-Deoxy-D-Glucose

> <Concentration_(mM)>
2.5

> <IC50_(µM)>
100

> <Yeast_Active?>
-

> <Pubchem_CID>
40

$$$$
