
  -ISIS-  08130814242D

 31 35  0  0  0  0  0  0  0  0999 V2000
   -2.1500    0.9500    0.0000 N   0  0  3  0  0  0  0  0  0  0  0  0
   -2.8958    1.4000    0.0000 C   0  0  0  0  0  0  0  0  0  0  0  0
   -2.1833    0.1000    0.0000 C   0  0  0  0  0  0  0  0  0  0  0  0
   -1.2958   -2.0375    0.0000 C   0  0  0  0  0  0  0  0  0  0  0  0
   -0.4500   -2.1500    0.0000 N   0  0  3  0  0  0  0  0  0  0  0  0
   -2.9125   -0.3042    0.0000 N   0  0  0  0  0  0  0  0  0  0  0  0
   -1.4625   -1.2167    0.0000 C   0  0  3  0  0  0  0  0  0  0  0  0
   -3.6333    1.0000    0.0000 C   0  0  0  0  0  0  0  0  0  0  0  0
   -0.1125   -1.3875    0.0000 C   0  0  0  0  0  0  0  0  0  0  0  0
   -0.7333   -0.8042    0.0000 C   0  0  0  0  0  0  0  0  0  0  0  0
   -2.2125   -0.7542    0.0000 C   0  0  0  0  0  0  0  0  0  0  0  0
   -3.6500    0.1333    0.0000 C   0  0  0  0  0  0  0  0  0  0  0  0
   -2.8833    2.2500    0.0000 O   0  0  0  0  0  0  0  0  0  0  0  0
   -1.4000    1.3500    0.0000 C   0  0  0  0  0  0  0  0  0  0  0  0
   -1.8708   -2.7042    0.0000 O   0  0  0  0  0  0  0  0  0  0  0  0
   -0.0333   -2.8792    0.0000 C   0  0  0  0  0  0  0  0  0  0  0  0
   -4.3500    1.4333    0.0000 C   0  0  0  0  0  0  0  0  0  0  0  0
    0.7167   -1.1542    0.0000 C   0  0  0  0  0  0  0  0  0  0  0  0
   -0.5208    0.0333    0.0000 C   0  0  0  0  0  0  0  0  0  0  0  0
   -4.3833   -0.2792    0.0000 C   0  0  0  0  0  0  0  0  0  0  0  0
   -1.3708    2.2083    0.0000 C   0  0  0  0  0  0  0  0  0  0  0  0
   -0.6833    0.8958    0.0000 C   0  0  0  0  0  0  0  0  0  0  0  0
    0.8167   -2.8792    0.0000 C   0  0  0  0  0  0  0  0  0  0  0  0
   -5.1125    1.0125    0.0000 C   0  0  0  0  0  0  0  0  0  0  0  0
    0.2875    0.2708    0.0000 C   0  0  0  0  0  0  0  0  0  0  0  0
    0.9042   -0.3292    0.0000 C   0  0  0  0  0  0  0  0  0  0  0  0
   -5.1333    0.1500    0.0000 C   0  0  0  0  0  0  0  0  0  0  0  0
    1.2375   -2.1375    0.0000 C   0  0  0  0  0  0  0  0  0  0  0  0
    0.0792    1.3000    0.0000 C   0  0  0  0  0  0  0  0  0  0  0  0
   -0.6208    2.6125    0.0000 C   0  0  0  0  0  0  0  0  0  0  0  0
    0.1042    2.1500    0.0000 C   0  0  0  0  0  0  0  0  0  0  0  0
  2  1  1  0  0  0  0
  3  1  1  0  0  0  0
  4  7  1  0  0  0  0
  5  4  1  0  0  0  0
  6  3  2  0  0  0  0
  7 11  1  0  0  0  0
  8  2  1  0  0  0  0
  9 10  2  0  0  0  0
 10  7  1  0  0  0  0
 11  3  1  0  0  0  0
 12  6  1  0  0  0  0
 13  2  2  0  0  0  0
 14  1  1  0  0  0  0
 15  4  2  0  0  0  0
 16  5  1  0  0  0  0
 17  8  1  0  0  0  0
 18  9  1  0  0  0  0
 19 10  1  0  0  0  0
 20 12  1  0  0  0  0
 21 14  1  0  0  0  0
 22 14  2  0  0  0  0
 23 16  1  0  0  0  0
 24 17  2  0  0  0  0
 25 19  2  0  0  0  0
 26 25  1  0  0  0  0
 27 20  2  0  0  0  0
 28 23  1  0  0  0  0
 29 22  1  0  0  0  0
 30 21  2  0  0  0  0
 31 29  2  0  0  0  0
  8 12  2  0  0  0  0
 31 30  1  0  0  0  0
  9  5  1  0  0  0  0
 24 27  1  0  0  0  0
 26 18  2  0  0  0  0
M  END
> <#>
880

> <PLATE>
LAT011

> <ROW>
H

> <COL>
11

> <COORD>
H11

> <LATID>
LAT011H11

> <Supplier>
Chembridge

> <Suplier_CAT#>
5705392

> <Name>
Novel

> <Sec_Name>
223_C10

> <Concentration_(mM)>
2.5

> <IC50_(µM)>
61

> <Yeast_Active?>
-

> <Pubchem_CID>
1082621

$$$$
