
  -ISIS-  08130814242D

 18 20  0  0  0  0  0  0  0  0999 V2000
    0.5000   -0.3000    0.0000 C   0  0  0  0  0  0  0  0  0  0  0  0
   -0.5333    0.3000    0.0000 N   0  0  0  0  0  0  0  0  0  0  0  0
    0.5000   -1.4667    0.0000 O   0  0  0  0  0  0  0  0  0  0  0  0
   -0.5333   -2.0667    0.0000 C   0  0  0  0  0  0  0  0  0  0  0  0
   -1.5625   -1.4792    0.0000 C   0  0  0  0  0  0  0  0  0  0  0  0
   -1.5625   -0.2875    0.0000 C   0  0  0  0  0  0  0  0  0  0  0  0
    1.5292    0.2958    0.0000 C   0  0  0  0  0  0  0  0  0  0  0  0
   -0.5333   -3.2542    0.0000 O   0  0  0  0  0  0  0  0  0  0  0  0
    1.5292    1.4833    0.0000 C   0  0  0  0  0  0  0  0  0  0  0  0
    2.5542    2.0708    0.0000 C   0  0  0  0  0  0  0  0  0  0  0  0
    2.5542    3.2708    0.0000 F   0  0  0  0  0  0  0  0  0  0  0  0
   -2.5958   -2.0667    0.0000 C   0  0  0  0  0  0  0  0  0  0  0  0
   -2.5958    0.3000    0.0000 C   0  0  0  0  0  0  0  0  0  0  0  0
    2.5542   -0.3042    0.0000 C   0  0  0  0  0  0  0  0  0  0  0  0
    3.5792    0.2833    0.0000 C   0  0  0  0  0  0  0  0  0  0  0  0
    3.5875    1.4833    0.0000 C   0  0  0  0  0  0  0  0  0  0  0  0
   -3.6208   -1.4667    0.0000 C   0  0  0  0  0  0  0  0  0  0  0  0
   -3.6208   -0.3000    0.0000 C   0  0  0  0  0  0  0  0  0  0  0  0
  2  1  2  0  0  0  0
  3  1  1  0  0  0  0
  4  3  1  0  0  0  0
  5  4  1  0  0  0  0
  6  2  1  0  0  0  0
  7  1  1  0  0  0  0
  8  4  2  0  0  0  0
  9  7  2  0  0  0  0
 10  9  1  0  0  0  0
 11 10  1  0  0  0  0
 12  5  1  0  0  0  0
 13  6  1  0  0  0  0
 14  7  1  0  0  0  0
 15 14  2  0  0  0  0
 16 15  1  0  0  0  0
 17 12  2  0  0  0  0
 18 13  2  0  0  0  0
  5  6  2  0  0  0  0
 16 10  2  0  0  0  0
 18 17  1  0  0  0  0
M  END
> <#>
935

> <PLATE>
LAT012

> <ROW>
G

> <COL>
8

> <COORD>
G08

> <LATID>
LAT012G08

> <Supplier>
Chembridge

> <Suplier_CAT#>
5765180

> <Name>
Novel

> <Sec_Name>
242_F07

> <Concentration_(mM)>
2.5

> <IC50_(µM)>
30

> <Yeast_Active?>
-

> <Pubchem_CID>
699937

$$$$
