
  -ISIS-  08130814242D

  4  0  0  0  0  0  0  0  0  0999 V2000
    4.5505   -0.2180    0.0000 Co  0  2  0  0  0  0  0  0  0  0  0  0
    3.4725    0.4030    0.0000 Cl  0  5  0  0  0  0  0  0  0  0  0  0
    5.6243    0.4030    0.0000 Cl  0  5  0  0  0  0  0  0  0  0  0  0
    4.1750    1.7500    0.0000 C   0  0  0  0  0  0  0  0  0  0  0  0
A    4
6[H2O]
M  CHG  3   1   2   2  -1   3  -1
M  END
> <#>
445

> <PLATE>
LAT006

> <ROW>
E

> <COL>
7

> <COORD>
E07

> <LATID>
LAT006E07

> <Supplier>
Sigma

> <Suplier_CAT#>
C-2644

> <Name>
Cobalt Chloride (Hexahydrate)

> <Concentration_(mM)>
2.5

> <IC50_(µM)>
inactive

> <Yeast_Active?>
-

> <Pubchem_CID>
3032536

$$$$
