
  -ISIS-  08130814242D

 23 25  0  0  0  0  0  0  0  0999 V2000
   -1.9708    0.6458    0.0000 S   0  0  3  0  0  0  0  0  0  0  0  0
    1.2375    0.6500    0.0000 C   0  0  0  0  0  0  0  0  0  0  0  0
    1.3792   -0.2792    0.0000 C   0  0  0  0  0  0  0  0  0  0  0  0
    2.7292    0.3958    0.0000 N   0  0  0  0  0  0  0  0  0  0  0  0
    2.0792    1.0208    0.0000 C   0  0  0  0  0  0  0  0  0  0  0  0
   -1.1708    1.1208    0.0000 N   0  0  0  0  0  0  0  0  0  0  0  0
   -2.7958    0.1625    0.0000 C   0  0  0  0  0  0  0  0  0  0  0  0
    2.3042   -0.4500    0.0000 C   0  0  0  0  0  0  0  0  0  0  0  0
   -0.3708    0.6625    0.0000 N   0  0  0  0  0  0  0  0  0  0  0  0
   -2.4500    1.4458    0.0000 O   0  0  0  0  0  0  0  0  0  0  0  0
   -1.5125   -0.1542    0.0000 O   0  0  0  0  0  0  0  0  0  0  0  0
    0.7542   -1.0000    0.0000 C   0  0  0  0  0  0  0  0  0  0  0  0
    0.4167    1.1208    0.0000 C   0  0  0  0  0  0  0  0  0  0  0  0
    2.6167   -1.3292    0.0000 C   0  0  0  0  0  0  0  0  0  0  0  0
   -3.5708    0.6208    0.0000 C   0  0  0  0  0  0  0  0  0  0  0  0
   -2.7958   -0.7542    0.0000 C   0  0  0  0  0  0  0  0  0  0  0  0
    1.0667   -1.9042    0.0000 C   0  0  0  0  0  0  0  0  0  0  0  0
    2.0292   -2.0792    0.0000 C   0  0  0  0  0  0  0  0  0  0  0  0
   -3.5708   -1.2167    0.0000 C   0  0  0  0  0  0  0  0  0  0  0  0
   -4.3708    0.1500    0.0000 C   0  0  0  0  0  0  0  0  0  0  0  0
   -4.3708   -0.7542    0.0000 C   0  0  0  0  0  0  0  0  0  0  0  0
    0.4542   -2.6000    0.0000 Br  0  0  0  0  0  0  0  0  0  0  0  0
   -5.1958   -1.2375    0.0000 C   0  0  0  0  0  0  0  0  0  0  0  0
  2 13  1  0  0  0  0
  3  2  1  0  0  0  0
  4  5  1  0  0  0  0
  5  2  2  0  0  0  0
  6  1  1  0  0  0  0
  7  1  1  0  0  0  0
  8  3  2  0  0  0  0
  9  6  1  0  0  0  0
 10  1  2  0  0  0  0
 11  1  2  0  0  0  0
 12  3  1  0  0  0  0
 13  9  2  0  0  0  0
 14  8  1  0  0  0  0
 15  7  1  0  0  0  0
 16  7  2  0  0  0  0
 17 12  2  0  0  0  0
 18 17  1  0  0  0  0
 19 16  1  0  0  0  0
 20 15  2  0  0  0  0
 21 19  2  0  0  0  0
 22 17  1  0  0  0  0
 23 21  1  0  0  0  0
 20 21  1  0  0  0  0
  4  8  1  0  0  0  0
 18 14  2  0  0  0  0
M  END
> <#>
660

> <PLATE>
LAT009

> <ROW>
D

> <COL>
4

> <COORD>
D04

> <LATID>
LAT009D04

> <Supplier>
Chembridge

> <Suplier_CAT#>
5527982

> <Name>
Novel

> <Sec_Name>
149_C07

> <Concentration_(mM)>
2.5

> <IC50_(µM)>
29

> <Yeast_Active?>
-

> <Pubchem_CID>
NULL

$$$$
