
  -ISIS-  08130814242D

 20 21  0  0  0  0  0  0  0  0999 V2000
   -2.4708   -6.0292    0.0000 S   0  0  3  0  0  0  0  0  0  0  0  0
   -3.2208   -6.0292    0.0000 C   0  0  0  0  0  0  0  0  0  0  0  0
   -3.5958   -6.6667    0.0000 C   0  0  0  0  0  0  0  0  0  0  0  0
   -3.6000   -7.4167    0.0000 N   0  3  0  0  0  0  0  0  0  0  0  0
   -1.7208   -6.0292    0.0000 N   0  0  0  0  0  0  0  0  0  0  0  0
   -2.4708   -6.7792    0.0000 O   0  0  0  0  0  0  0  0  0  0  0  0
   -2.4708   -5.2792    0.0000 O   0  0  0  0  0  0  0  0  0  0  0  0
   -4.2500   -7.8000    0.0000 O   0  5  0  0  0  0  0  0  0  0  0  0
   -2.9500   -7.8000    0.0000 O   0  0  0  0  0  0  0  0  0  0  0  0
   -1.3458   -5.3792    0.0000 C   0  0  0  0  0  0  0  0  0  0  0  0
   -0.5958   -5.3792    0.0000 C   0  0  0  0  0  0  0  0  0  0  0  0
   -0.2125   -4.7292    0.0000 C   0  0  0  0  0  0  0  0  0  0  0  0
   -3.5958   -5.3792    0.0000 C   0  0  0  0  0  0  0  0  0  0  0  0
   -4.3458   -6.6667    0.0000 C   0  0  0  0  0  0  0  0  0  0  0  0
    0.5292   -4.7292    0.0000 Br  0  0  0  0  0  0  0  0  0  0  0  0
   -1.3458   -4.0875    0.0000 C   0  0  0  0  0  0  0  0  0  0  0  0
   -1.7125   -4.7375    0.0000 C   0  0  0  0  0  0  0  0  0  0  0  0
   -0.5958   -4.0792    0.0000 C   0  0  0  0  0  0  0  0  0  0  0  0
   -4.3458   -5.3792    0.0000 C   0  0  0  0  0  0  0  0  0  0  0  0
   -4.7208   -6.0292    0.0000 C   0  0  0  0  0  0  0  0  0  0  0  0
  2  1  1  0  0  0  0
  3  2  1  0  0  0  0
  4  3  1  0  0  0  0
  5  1  1  0  0  0  0
  6  1  2  0  0  0  0
  7  1  2  0  0  0  0
  8  4  1  0  0  0  0
  9  4  2  0  0  0  0
 10  5  1  0  0  0  0
 11 10  2  0  0  0  0
 12 11  1  0  0  0  0
 13  2  2  0  0  0  0
 14  3  2  0  0  0  0
 15 12  1  0  0  0  0
 16 17  2  0  0  0  0
 17 10  1  0  0  0  0
 18 16  1  0  0  0  0
 19 13  1  0  0  0  0
 20 19  2  0  0  0  0
 14 20  1  0  0  0  0
 12 18  2  0  0  0  0
M  CHG  2   4   1   8  -1
M  END
> <#>
616

> <PLATE>
LAT008

> <ROW>
H

> <COL>
8

> <COORD>
H08

> <LATID>
LAT008H08

> <Supplier>
Chembridge

> <Suplier_CAT#>
5534071

> <Name>
Novel

> <Sec_Name>
154_E03

> <Concentration_(mM)>
2.5

> <IC50_(µM)>
67

> <Yeast_Active?>
-

> <Pubchem_CID>
1087333

$$$$
