
  -ISIS-  08130814242D

 12 12  0  0  0  0  0  0  0  0999 V2000
    0.9584    1.5069    0.0000 C   0  0  0  0  0  0  0  0  0  0  0  0
    0.9402    0.2570    0.0000 C   0  0  0  0  0  0  0  0  0  0  0  0
    2.0135   -0.3837    0.0000 N   0  0  0  0  0  0  0  0  0  0  0  0
    1.9952   -1.6336    0.0000 C   0  0  0  0  0  0  0  0  0  0  0  0
    0.9037   -2.2427    0.0000 C   0  0  0  0  0  0  0  0  0  0  0  0
   -0.1696   -1.6020    0.0000 C   0  0  0  0  0  0  0  0  0  0  0  0
   -0.1514   -0.3521    0.0000 C   0  0  0  0  0  0  0  0  0  0  0  0
   -1.2247    0.2886    0.0000 O   0  0  0  0  0  0  0  0  0  0  0  0
   -1.2611   -2.2112    0.0000 C   0  0  0  0  0  0  0  0  0  0  0  0
   -1.2793   -3.4610    0.0000 O   0  0  0  0  0  0  0  0  0  0  0  0
    0.8855   -3.4926    0.0000 C   0  0  0  0  0  0  0  0  0  0  0  0
    1.9588   -4.1333    0.0000 O   0  0  0  0  0  0  0  0  0  0  0  0
  1  2  1  0  0  0  0
  2  3  2  0  0  0  0
  3  4  1  0  0  0  0
  4  5  2  0  0  0  0
  5  6  1  0  0  0  0
  6  7  2  0  0  0  0
  2  7  1  0  0  0  0
  7  8  1  0  0  0  0
  6  9  1  0  0  0  0
  9 10  1  0  0  0  0
  5 11  1  0  0  0  0
 11 12  1  0  0  0  0
M  END
> <#>
435

> <PLATE>
LAT006

> <ROW>
C

> <COL>
6

> <COORD>
C06

> <LATID>
LAT006C06

> <Supplier>
Sigma

> <Suplier_CAT#>
P-8666

> <Name>
Pyroxidine Hcl

> <Concentration_(mM)>
2.5

> <IC50_(µM)>
inactive

> <Yeast_Active?>
-

> <Pubchem_CID>
1054

$$$$
