
  -ISIS-  08130814242D

 27 29  0  0  0  0  0  0  0  0999 V2000
   -0.8500   -1.8000    0.0000 C   0  0  0  0  0  0  0  0  0  0  0  0
   -0.8500   -2.8500    0.0000 C   0  0  0  0  0  0  0  0  0  0  0  0
   -1.7458   -1.3000    0.0000 C   0  0  3  0  0  0  0  0  0  0  0  0
   -2.6333   -2.8500    0.0000 C   0  0  0  0  0  0  0  0  0  0  0  0
   -1.7458   -3.3792    0.0000 N   0  0  0  0  0  0  0  0  0  0  0  0
   -2.6333   -1.8000    0.0000 N   0  0  0  0  0  0  0  0  0  0  0  0
    0.0792   -1.2792    0.0000 C   0  0  0  0  0  0  0  0  0  0  0  0
   -1.7458   -0.2500    0.0000 C   0  0  0  0  0  0  0  0  0  0  0  0
   -3.5500   -3.4000    0.0000 O   0  0  0  0  0  0  0  0  0  0  0  0
    0.9667   -1.7792    0.0000 O   0  0  0  0  0  0  0  0  0  0  0  0
   -2.6333    0.2500    0.0000 C   0  0  0  0  0  0  0  0  0  0  0  0
   -0.8500    0.2500    0.0000 C   0  0  0  0  0  0  0  0  0  0  0  0
    0.0792   -0.2292    0.0000 O   0  0  0  0  0  0  0  0  0  0  0  0
    0.0792   -3.4000    0.0000 C   0  0  0  0  0  0  0  0  0  0  0  0
   -1.7458    1.8000    0.0000 C   0  0  0  0  0  0  0  0  0  0  0  0
   -0.8500    1.3000    0.0000 C   0  0  0  0  0  0  0  0  0  0  0  0
   -2.6333    1.3000    0.0000 C   0  0  0  0  0  0  0  0  0  0  0  0
    0.9667    0.3000    0.0000 C   0  0  0  0  0  0  0  0  0  0  0  0
   -1.7458    2.8333    0.0000 O   0  0  0  0  0  0  0  0  0  0  0  0
    1.8542    1.8500    0.0000 C   0  0  0  0  0  0  0  0  0  0  0  0
    0.9667    1.3208    0.0000 C   0  0  0  0  0  0  0  0  0  0  0  0
   -0.8625    3.3458    0.0000 C   0  0  0  0  0  0  0  0  0  0  0  0
    1.8542    2.8708    0.0000 C   0  0  0  0  0  0  0  0  0  0  0  0
    2.7500    1.3208    0.0000 C   0  0  0  0  0  0  0  0  0  0  0  0
    3.6375    1.8500    0.0000 C   0  0  0  0  0  0  0  0  0  0  0  0
    2.7500    3.4000    0.0000 C   0  0  0  0  0  0  0  0  0  0  0  0
    3.6375    2.8708    0.0000 C   0  0  0  0  0  0  0  0  0  0  0  0
  2  1  2  0  0  0  0
  3  1  1  0  0  0  0
  4  6  1  0  0  0  0
  5  2  1  0  0  0  0
  6  3  1  0  0  0  0
  7  1  1  0  0  0  0
  8  3  1  0  0  0  0
  9  4  2  0  0  0  0
 10  7  2  0  0  0  0
 11  8  1  0  0  0  0
 12  8  2  0  0  0  0
 13  7  1  0  0  0  0
 14  2  1  0  0  0  0
 15 16  2  0  0  0  0
 16 12  1  0  0  0  0
 17 11  2  0  0  0  0
 18 13  1  0  0  0  0
 19 15  1  0  0  0  0
 20 21  1  0  0  0  0
 21 18  1  0  0  0  0
 22 19  1  0  0  0  0
 23 20  2  0  0  0  0
 24 20  1  0  0  0  0
 25 24  2  0  0  0  0
 26 23  1  0  0  0  0
 27 25  1  0  0  0  0
  5  4  1  0  0  0  0
 17 15  1  0  0  0  0
 26 27  2  0  0  0  0
M  END
> <#>
570

> <PLATE>
LAT008

> <ROW>
B

> <COL>
3

> <COORD>
B03

> <LATID>
LAT008B03

> <Supplier>
Chembridge

> <Suplier_CAT#>
5476483

> <Name>
Novel

> <Sec_Name>
139_E04

> <Concentration_(mM)>
2.5

> <IC50_(µM)>
23

> <Yeast_Active?>
-

> <Pubchem_CID>
2848080

$$$$
