
  -ISIS-  08130814242D

 28 31  0  0  0  0  0  0  0  0999 V2000
    6.9167   -3.5042    0.0000 C   0  0  1  0  0  0  0  0  0  0  0  0
    5.4792   -4.3375    0.0000 C   0  0  2  0  0  0  0  0  0  0  0  0
    4.7667   -4.7500    0.0000 C   0  0  2  0  0  0  0  0  0  0  0  0
    6.9167   -4.3375    0.0000 C   0  0  3  0  0  0  0  0  0  0  0  0
    6.2000   -4.7500    0.0000 C   0  0  3  0  0  0  0  0  0  0  0  0
    7.7000   -3.2500    0.0000 C   0  0  2  0  0  0  0  0  0  0  0  0
    4.7667   -5.5750    0.0000 C   0  0  0  0  0  0  0  0  0  0  0  0
    5.4792   -3.5042    0.0000 C   0  0  2  0  0  0  0  0  0  0  0  0
    6.1917   -3.0917    0.0000 C   0  0  0  0  0  0  0  0  0  0  0  0
    8.1792   -3.9167    0.0000 C   0  0  2  0  0  0  0  0  0  0  0  0
    4.0542   -4.3375    0.0000 C   0  0  0  0  0  0  0  0  0  0  0  0
    7.7000   -4.5875    0.0000 C   0  0  0  0  0  0  0  0  0  0  0  0
    4.0542   -5.9875    0.0000 C   0  0  0  0  0  0  0  0  0  0  0  0
    8.0375   -2.5000    0.0000 C   0  0  0  0  0  0  0  0  0  0  0  0
    6.2000   -5.5750    0.0000 C   0  0  0  0  0  0  0  0  0  0  0  0
    3.3417   -4.7500    0.0000 C   0  0  0  0  0  0  0  0  0  0  0  0
    3.3417   -5.5750    0.0000 C   0  0  0  0  0  0  0  0  0  0  0  0
    5.4792   -5.9875    0.0000 C   0  0  0  0  0  0  0  0  0  0  0  0
    5.4792   -5.1625    0.0000 F   0  0  0  0  0  0  0  0  0  0  0  0
    8.8542   -2.4125    0.0000 O   0  0  0  0  0  0  0  0  0  0  0  0
    2.6167   -6.0000    0.0000 O   0  0  0  0  0  0  0  0  0  0  0  0
    8.7667   -3.2667    0.0000 O   0  0  0  0  0  0  0  0  0  0  0  0
    6.9125   -2.6792    0.0000 C   0  0  0  0  0  0  0  0  0  0  0  0
    4.7625   -3.0792    0.0000 O   0  0  0  0  0  0  0  0  0  0  0  0
    4.7667   -3.9167    0.0000 C   0  0  0  0  0  0  0  0  0  0  0  0
    8.9167   -3.9250    0.0000 C   0  0  0  0  0  0  0  0  0  0  0  0
    7.5500   -1.8250    0.0000 C   0  0  0  0  0  0  0  0  0  0  0  0
    7.8875   -1.0750    0.0000 O   0  0  0  0  0  0  0  0  0  0  0  0
  2  8  1  0  0  0  0
  3  2  1  0  0  0  0
  4  1  1  0  0  0  0
  5  4  1  0  0  0  0
  6  1  1  0  0  0  0
  7  3  1  0  0  0  0
  8  9  1  0  0  0  0
  9  1  1  0  0  0  0
 10  6  1  0  0  0  0
 11  3  1  0  0  0  0
 12  4  1  0  0  0  0
 13  7  2  0  0  0  0
  6 14  1  1  0  0  0
 15  5  1  0  0  0  0
 16 11  2  0  0  0  0
 17 16  1  0  0  0  0
 18 15  1  0  0  0  0
  2 19  1  6  0  0  0
 20 14  2  0  0  0  0
 21 17  2  0  0  0  0
  6 22  1  6  0  0  0
  1 23  1  1  0  0  0
  8 24  1  1  0  0  0
  3 25  1  1  0  0  0
 10 26  1  1  0  0  0
 27 14  1  0  0  0  0
 28 27  1  0  0  0  0
 12 10  1  0  0  0  0
  5  2  1  0  0  0  0
  7 18  1  0  0  0  0
 17 13  1  0  0  0  0
M  END
> <#>
45

> <PLATE>
LAT001

> <ROW>
E

> <COL>
7

> <COORD>
E07

> <LATID>
LAT001E07

> <Supplier>
Microsource

> <Suplier_CAT#>
01500144

> <Name>
Betamethasone

> <Concentration_(mM)>
2.5

> <IC50_(µM)>
inactive

> <Yeast_Active?>
-

> <Pubchem_CID>
9782

> <Description>
Glucocorticoid, Antiinflammatory

$$$$
