
  -ISIS-  08130814242D

  4  3  0  0  0  0  0  0  0  0999 V2000
    5.2667   -1.7948    0.0000 B   0  0  0  0  0  0  0  0  0  0  0  0
    4.6417   -2.8773    0.0000 O   0  0  0  0  0  0  0  0  0  0  0  0
    4.6417   -0.7123    0.0000 O   0  0  0  0  0  0  0  0  0  0  0  0
    6.5167   -1.7948    0.0000 O   0  0  0  0  0  0  0  0  0  0  0  0
  1  2  1  0  0  0  0
  1  3  1  0  0  0  0
  1  4  1  0  0  0  0
M  END
> <#>
426

> <PLATE>
LAT006

> <ROW>
B

> <COL>
5

> <COORD>
B05

> <LATID>
LAT006B05

> <Supplier>
Sigma

> <Suplier_CAT#>
B9645

> <Name>
Boric Acid

> <Concentration_(mM)>
2.5

> <IC50_(µM)>
inactive

> <Yeast_Active?>
-

> <Pubchem_CID>
7628

$$$$
