
  -ISIS-  08130814242D

 25 27  0  0  0  0  0  0  0  0999 V2000
    1.2667   -3.7500    0.0000 N   0  3  0  0  0  0  0  0  0  0  0  0
    5.8167   -1.1042    0.0000 C   0  0  0  0  0  0  0  0  0  0  0  0
    5.1667   -1.4875    0.0000 N   0  0  3  0  0  0  0  0  0  0  0  0
    3.8667   -2.2375    0.0000 N   0  0  3  0  0  0  0  0  0  0  0  0
    3.2167   -2.6042    0.0000 C   0  0  0  0  0  0  0  0  0  0  0  0
    1.9167   -3.3667    0.0000 C   0  0  0  0  0  0  0  0  0  0  0  0
    3.2167   -3.3667    0.0000 C   0  0  0  0  0  0  0  0  0  0  0  0
    2.5667   -3.7500    0.0000 C   0  0  0  0  0  0  0  0  0  0  0  0
    2.5667   -2.2375    0.0000 C   0  0  0  0  0  0  0  0  0  0  0  0
    0.6167   -3.3667    0.0000 O   0  5  0  0  0  0  0  0  0  0  0  0
    6.4667   -1.4875    0.0000 C   0  0  0  0  0  0  0  0  0  0  0  0
    1.2667   -4.5000    0.0000 O   0  0  0  0  0  0  0  0  0  0  0  0
    5.1667   -2.2375    0.0000 C   0  0  0  0  0  0  0  0  0  0  0  0
    4.5167   -1.1042    0.0000 C   0  0  0  0  0  0  0  0  0  0  0  0
    4.5167   -2.6042    0.0000 C   0  0  0  0  0  0  0  0  0  0  0  0
    3.8667   -1.4875    0.0000 C   0  0  0  0  0  0  0  0  0  0  0  0
    5.8167   -0.3542    0.0000 O   0  0  0  0  0  0  0  0  0  0  0  0
    1.9167   -2.6042    0.0000 C   0  0  0  0  0  0  0  0  0  0  0  0
    7.1167   -1.1042    0.0000 C   0  0  0  0  0  0  0  0  0  0  0  0
    6.4667   -2.2375    0.0000 C   0  0  0  0  0  0  0  0  0  0  0  0
    3.8667   -3.7500    0.0000 Cl  0  0  0  0  0  0  0  0  0  0  0  0
    7.7667   -2.2500    0.0000 C   0  0  0  0  0  0  0  0  0  0  0  0
    7.1167   -2.6042    0.0000 C   0  0  0  0  0  0  0  0  0  0  0  0
    7.7667   -1.5000    0.0000 C   0  0  0  0  0  0  0  0  0  0  0  0
    8.4167   -2.6167    0.0000 Br  0  0  0  0  0  0  0  0  0  0  0  0
  2  3  1  0  0  0  0
  3 14  1  0  0  0  0
  4  5  1  0  0  0  0
  5  9  1  0  0  0  0
  6  1  1  0  0  0  0
  7  8  1  0  0  0  0
  8  6  2  0  0  0  0
  9 18  2  0  0  0  0
 10  1  1  0  0  0  0
 11  2  1  0  0  0  0
 12  1  2  0  0  0  0
 13 15  1  0  0  0  0
 14 16  1  0  0  0  0
 15  4  1  0  0  0  0
 16  4  1  0  0  0  0
 17  2  2  0  0  0  0
 18  6  1  0  0  0  0
 19 11  2  0  0  0  0
 20 11  1  0  0  0  0
 21  7  1  0  0  0  0
 22 23  1  0  0  0  0
 23 20  2  0  0  0  0
 24 19  1  0  0  0  0
 25 22  1  0  0  0  0
  7  5  2  0  0  0  0
 13  3  1  0  0  0  0
 22 24  2  0  0  0  0
M  CHG  2   1   1  10  -1
M  END
> <#>
896

> <PLATE>
LAT012

> <ROW>
H

> <COL>
3

> <COORD>
H03

> <LATID>
LAT012H03

> <Supplier>
Chembridge

> <Suplier_CAT#>
5674845

> <Name>
Novel

> <Sec_Name>
213_E03

> <Concentration_(mM)>
2.5

> <IC50_(µM)>
>100

> <Yeast_Active?>
+

> <Pubchem_CID>
NULL

$$$$
