
  -ISIS-  08130814242D

 20 22  0  0  0  0  0  0  0  0999 V2000
   -0.3833   -1.7792    0.0000 N   0  3  0  0  0  0  0  0  0  0  0  0
    2.2250   -0.2875    0.0000 N   0  0  3  0  0  0  0  0  0  0  0  0
    0.2667   -1.4042    0.0000 C   0  0  0  0  0  0  0  0  0  0  0  0
    0.2667   -0.6542    0.0000 C   0  0  0  0  0  0  0  0  0  0  0  0
    0.9167   -0.2792    0.0000 C   0  0  0  0  0  0  0  0  0  0  0  0
    1.5750   -0.6542    0.0000 C   0  0  0  0  0  0  0  0  0  0  0  0
    0.9167   -1.7875    0.0000 C   0  0  0  0  0  0  0  0  0  0  0  0
    1.5667   -1.4125    0.0000 C   0  0  0  0  0  0  0  0  0  0  0  0
   -1.0333   -1.4042    0.0000 O   0  5  0  0  0  0  0  0  0  0  0  0
    0.9167    0.4708    0.0000 N   0  0  0  0  0  0  0  0  0  0  0  0
    2.6000    0.1583    0.0000 C   0  0  0  0  0  0  0  0  0  0  0  0
   -0.3875   -2.5292    0.0000 O   0  0  0  0  0  0  0  0  0  0  0  0
    2.9292   -0.1542    0.0000 C   0  0  0  0  0  0  0  0  0  0  0  0
    2.4750    1.0375    0.0000 C   0  0  3  0  0  0  0  0  0  0  0  0
   -0.3833   -0.2792    0.0000 C   0  0  0  0  0  0  0  0  0  0  0  0
    1.8542    1.4708    0.0000 O   0  0  0  0  0  0  0  0  0  0  0  0
    2.8250    0.7875    0.0000 C   0  0  0  0  0  0  0  0  0  0  0  0
    0.2667    0.8500    0.0000 C   0  0  0  0  0  0  0  0  0  0  0  0
    3.2292    1.2083    0.0000 C   0  0  0  0  0  0  0  0  0  0  0  0
   -0.3833    0.4708    0.0000 C   0  0  0  0  0  0  0  0  0  0  0  0
  2  6  1  0  0  0  0
  3  1  1  0  0  0  0
  4  3  1  0  0  0  0
  5  4  1  0  0  0  0
  6  8  2  0  0  0  0
  7  3  2  0  0  0  0
  8  7  1  0  0  0  0
  9  1  1  0  0  0  0
 10  5  2  0  0  0  0
 11  2  1  0  0  0  0
 12  1  2  0  0  0  0
 13  2  1  0  0  0  0
 14 11  1  0  0  0  0
 15  4  2  0  0  0  0
 16 14  1  0  0  0  0
 17 13  1  0  0  0  0
 18 20  2  0  0  0  0
 19 17  1  0  0  0  0
 20 15  1  0  0  0  0
  6  5  1  0  0  0  0
 10 18  1  0  0  0  0
 14 19  1  0  0  0  0
M  CHG  2   1   1   9  -1
M  END
> <#>
973

> <PLATE>
LAT013

> <ROW>
E

> <COL>
3

> <COORD>
E03

> <LATID>
LAT013E03

> <Supplier>
Chembridge

> <Suplier_CAT#>
5753811

> <Name>
Novel

> <Sec_Name>
238_C08

> <Concentration_(mM)>
2.5

> <IC50_(µM)>
>100

> <Yeast_Active?>
-

> <Pubchem_CID>
NULL

$$$$
