
  -ISIS-  08130814242D

102110  0  0  0  0  0  0  0  0999 V2000
    4.4099   -4.6703    0.0000 C   0  0  0  0  0  0  0  0  0  0  0  0
    3.9439   -5.0741    0.0000 C   0  0  1  0  0  0  0  0  0  0  0  0
    4.0606   -5.6795    0.0000 C   0  0  2  0  0  0  0  0  0  0  0  0
    3.5989   -6.0858    0.0000 C   0  0  1  0  0  0  0  0  0  0  0  0
    3.0120   -5.8817    0.0000 C   0  0  0  0  0  0  0  0  0  0  0  0
    2.8952   -5.2763    0.0000 C   0  0  1  0  0  0  0  0  0  0  0  0
    3.3612   -4.8725    0.0000 O   0  0  0  0  0  0  0  0  0  0  0  0
    2.3126   -5.0746    0.0000 O   0  0  0  0  0  0  0  0  0  0  0  0
    1.8466   -5.4784    0.0000 C   0  0  2  0  0  0  0  0  0  0  0  0
    1.9633   -6.0839    0.0000 C   0  0  2  0  0  0  0  0  0  0  0  0
    1.4973   -6.4877    0.0000 C   0  0  1  0  0  0  0  0  0  0  0  0
    0.9146   -6.2860    0.0000 C   0  0  2  0  0  0  0  0  0  0  0  0
    0.7979   -5.6806    0.0000 O   0  0  0  0  0  0  0  0  0  0  0  0
    1.2639   -5.2768    0.0000 C   0  0  1  0  0  0  0  0  0  0  0  0
    1.1472   -4.6713    0.0000 O   0  0  0  0  0  0  0  0  0  0  0  0
    0.5645   -4.4697    0.0000 C   0  0  0  0  0  0  0  0  0  0  0  0
   -0.3194   -5.2065    0.0000 C   0  0  0  0  0  0  0  0  0  0  0  0
   -0.6777   -4.4042    0.0000 C   0  0  0  0  0  0  0  0  0  0  0  0
   -1.3321   -3.8179    0.0000 C   0  0  0  0  0  0  0  0  0  0  0  0
   -0.4564   -3.7458    0.0000 C   0  0  0  0  0  0  0  0  0  0  0  0
    0.3251   -3.3442    0.0000 C   0  0  0  0  0  0  0  0  0  0  0  0
    0.8934   -2.6740    0.0000 O   0  0  0  0  0  0  0  0  0  0  0  0
    1.1619   -1.8374    0.0000 C   0  0  0  0  0  0  0  0  0  0  0  0
    1.0899   -0.9617    0.0000 C   0  0  0  0  0  0  0  0  0  0  0  0
    0.6882   -0.1803    0.0000 C   0  0  0  0  0  0  0  0  0  0  0  0
    0.0181    0.3880    0.0000 C   0  0  0  0  0  0  0  0  0  0  0  0
    0.8772   -0.0380    0.0000 C   0  0  0  0  0  0  0  0  0  0  0  0
    1.3155   -0.8909    0.0000 C   0  0  0  0  0  0  0  0  0  0  0  0
   -0.8185    0.6566    0.0000 C   0  0  2  0  0  0  0  0  0  0  0  0
   -1.6942    0.5845    0.0000 C   0  0  2  0  0  0  0  0  0  0  0  0
   -2.4757    0.1829    0.0000 C   0  0  0  0  0  0  0  0  0  0  0  0
   -2.8591    0.6657    0.0000 O   0  0  0  0  0  0  0  0  0  0  0  0
   -3.0439   -0.4873    0.0000 N   0  0  0  0  0  0  0  0  0  0  0  0
   -3.3125   -1.3239    0.0000 C   0  0  2  0  0  0  0  0  0  0  0  0
   -3.2405   -2.1996    0.0000 C   0  0  0  0  0  0  0  0  0  0  0  0
   -3.8333   -2.3690    0.0000 O   0  0  0  0  0  0  0  0  0  0  0  0
   -2.8388   -2.9810    0.0000 N   0  0  0  0  0  0  0  0  0  0  0  0
   -2.1687   -3.5493    0.0000 C   0  0  1  0  0  0  0  0  0  0  0  0
   -3.0407   -3.6475    0.0000 C   0  0  0  0  0  0  0  0  0  0  0  0
   -3.2357   -3.0599    0.0000 O   0  0  0  0  0  0  0  0  0  0  0  0
   -3.8017   -4.0868    0.0000 N   0  0  0  0  0  0  0  0  0  0  0  0
   -4.3118   -4.8035    0.0000 C   0  0  2  0  0  0  0  0  0  0  0  0
   -3.7778   -4.4952    0.0000 C   0  0  0  0  0  0  0  0  0  0  0  0
   -3.1612   -4.4952    0.0000 C   0  0  0  0  0  0  0  0  0  0  0  0
   -2.6272   -4.8035    0.0000 C   0  0  0  0  0  0  0  0  0  0  0  0
   -2.6777   -4.3472    0.0000 C   0  0  0  0  0  0  0  0  0  0  0  0
   -3.0447   -4.0604    0.0000 C   0  0  0  0  0  0  0  0  0  0  0  0
   -3.5028   -4.1234    0.0000 C   0  0  0  0  0  0  0  0  0  0  0  0
   -2.1437   -4.0389    0.0000 O   0  0  0  0  0  0  0  0  0  0  0  0
   -2.3189   -5.3375    0.0000 C   0  0  0  0  0  0  0  0  0  0  0  0
   -1.7849   -5.0292    0.0000 C   0  0  0  0  0  0  0  0  0  0  0  0
   -1.2509   -5.3375    0.0000 C   0  0  0  0  0  0  0  0  0  0  0  0
   -1.2509   -5.9541    0.0000 C   0  0  0  0  0  0  0  0  0  0  0  0
   -1.7849   -6.2624    0.0000 C   0  0  0  0  0  0  0  0  0  0  0  0
   -2.3189   -5.9541    0.0000 C   0  0  0  0  0  0  0  0  0  0  0  0
   -2.6272   -6.4881    0.0000 C   0  0  2  0  0  0  0  0  0  0  0  0
   -3.1612   -6.7964    0.0000 N   0  0  0  0  0  0  0  0  0  0  0  0
   -3.7778   -6.7964    0.0000 C   0  0  0  0  0  0  0  0  0  0  0  0
   -3.5468   -5.9345    0.0000 O   0  0  0  0  0  0  0  0  0  0  0  0
   -4.3118   -6.4881    0.0000 C   0  0  2  0  0  0  0  0  0  0  0  0
   -4.2392   -7.2673    0.0000 C   0  0  1  0  0  0  0  0  0  0  0  0
   -3.1032   -7.9566    0.0000 C   0  0  0  0  0  0  0  0  0  0  0  0
   -2.1687   -7.7424    0.0000 C   0  0  0  0  0  0  0  0  0  0  0  0
   -1.3328   -7.4742    0.0000 C   0  0  0  0  0  0  0  0  0  0  0  0
   -0.6777   -6.8874    0.0000 C   0  0  0  0  0  0  0  0  0  0  0  0
   -0.3194   -6.0851    0.0000 O   0  0  0  0  0  0  0  0  0  0  0  0
   -1.1630   -7.7995    0.0000 C   0  0  0  0  0  0  0  0  0  0  0  0
   -2.0760   -8.0926    0.0000 C   0  0  0  0  0  0  0  0  0  0  0  0
   -1.3328   -6.5819    0.0000 Cl  0  0  0  0  0  0  0  0  0  0  0  0
   -4.6228   -7.7276    0.0000 O   0  0  0  0  0  0  0  0  0  0  0  0
   -4.6201   -5.9541    0.0000 N   0  0  0  0  0  0  0  0  0  0  0  0
   -4.6201   -5.3375    0.0000 C   0  0  0  0  0  0  0  0  0  0  0  0
   -5.2157   -5.1779    0.0000 O   0  0  0  0  0  0  0  0  0  0  0  0
   -2.1912   -6.9241    0.0000 C   0  0  0  0  0  0  0  0  0  0  0  0
   -1.5956   -6.7645    0.0000 O   0  0  0  0  0  0  0  0  0  0  0  0
   -2.3508   -7.5197    0.0000 O   0  0  0  0  0  0  0  0  0  0  0  0
   -0.7170   -6.2624    0.0000 O   0  0  0  0  0  0  0  0  0  0  0  0
   -1.7849   -4.4126    0.0000 O   0  0  0  0  0  0  0  0  0  0  0  0
   -3.9251   -1.2536    0.0000 C   0  0  0  0  0  0  0  0  0  0  0  0
   -4.1705   -0.6879    0.0000 C   0  0  0  0  0  0  0  0  0  0  0  0
   -4.7830   -0.6176    0.0000 O   0  0  0  0  0  0  0  0  0  0  0  0
   -3.8033   -0.1926    0.0000 N   0  0  0  0  0  0  0  0  0  0  0  0
   -1.9145    1.3552    0.0000 N   0  0  0  0  0  0  0  0  0  0  0  0
   -1.4785    1.7912    0.0000 C   0  0  0  0  0  0  0  0  0  0  0  0
   -0.8829    1.6316    0.0000 O   0  0  0  0  0  0  0  0  0  0  0  0
   -1.6381    2.3868    0.0000 C   0  0  1  0  0  0  0  0  0  0  0  0
   -2.2337    2.5464    0.0000 C   0  0  0  0  0  0  0  0  0  0  0  0
   -2.3933    3.1420    0.0000 C   0  0  3  0  0  0  0  0  0  0  0  0
   -2.9889    3.3016    0.0000 C   0  0  0  0  0  0  0  0  0  0  0  0
   -1.9573    3.5780    0.0000 C   0  0  0  0  0  0  0  0  0  0  0  0
   -1.2021    2.8228    0.0000 N   0  0  0  0  0  0  0  0  0  0  0  0
   -1.3617    3.4184    0.0000 C   0  0  0  0  0  0  0  0  0  0  0  0
   -0.7482    1.2691    0.0000 O   0  0  0  0  0  0  0  0  0  0  0  0
    0.1976   -0.9617    0.0000 Cl  0  0  0  0  0  0  0  0  0  0  0  0
    0.4487   -6.6898    0.0000 C   0  0  0  0  0  0  0  0  0  0  0  0
    0.5654   -7.2953    0.0000 O   0  0  0  0  0  0  0  0  0  0  0  0
    1.6140   -7.0931    0.0000 O   0  0  0  0  0  0  0  0  0  0  0  0
    2.5460   -6.2855    0.0000 O   0  0  0  0  0  0  0  0  0  0  0  0
    4.0732   -6.4721    0.0000 C   0  0  0  0  0  0  0  0  0  0  0  0
    3.2906   -6.6197    0.0000 N   0  0  0  0  0  0  0  0  0  0  0  0
    4.6433   -5.8812    0.0000 O   0  0  0  0  0  0  0  0  0  0  0  0
    2.1792   -0.3417    0.0000 Cl  0  0  0  0  0  0  0  0  0  0  0  0
  2  1  1  1  0  0  0
  2  3  1  0  0  0  0
  3  4  1  0  0  0  0
  4  5  1  0  0  0  0
  5  6  1  0  0  0  0
  6  7  1  0  0  0  0
  2  7  1  0  0  0  0
  6  8  1  6  0  0  0
  9  8  1  6  0  0  0
  9 10  1  0  0  0  0
 10 11  1  0  0  0  0
 11 12  1  0  0  0  0
 12 13  1  0  0  0  0
 13 14  1  0  0  0  0
  9 14  1  0  0  0  0
 14 15  1  1  0  0  0
 15 16  1  0  0  0  0
 16 17  2  0  0  0  0
 17 18  1  0  0  0  0
 18 19  2  0  0  0  0
 19 20  1  0  0  0  0
 20 21  2  0  0  0  0
 16 21  1  0  0  0  0
 21 22  1  0  0  0  0
 22 23  1  0  0  0  0
 23 24  2  0  0  0  0
 24 25  1  0  0  0  0
 25 26  2  0  0  0  0
 26 27  1  0  0  0  0
 27 28  2  0  0  0  0
 23 28  1  0  0  0  0
 26 29  1  0  0  0  0
 29 30  1  0  0  0  0
 30 31  1  0  0  0  0
 31 32  2  0  0  0  0
 31 33  1  0  0  0  0
 33 34  1  0  0  0  0
 34 35  1  0  0  0  0
 35 36  2  0  0  0  0
 35 37  1  0  0  0  0
 38 37  1  6  0  0  0
 19 38  1  0  0  0  0
 38 39  1  0  0  0  0
 39 40  2  0  0  0  0
 39 41  1  0  0  0  0
 42 41  1  6  0  0  0
 42 43  1  0  0  0  0
 43 44  2  0  0  0  0
 44 45  1  0  0  0  0
 45 46  2  0  0  0  0
 46 47  1  0  0  0  0
 47 48  2  0  0  0  0
 43 48  1  0  0  0  0
 46 49  1  0  0  0  0
 45 50  1  0  0  0  0
 50 51  2  0  0  0  0
 51 52  1  0  0  0  0
 52 53  2  0  0  0  0
 53 54  1  0  0  0  0
 54 55  2  0  0  0  0
 50 55  1  0  0  0  0
 55 56  1  0  0  0  0
 56 57  1  0  0  0  0
 57 58  1  0  0  0  0
 58 59  2  0  0  0  0
 58 60  1  0  0  0  0
 60 61  1  0  0  0  0
 61 62  1  0  0  0  0
 62 63  2  0  0  0  0
 63 64  1  0  0  0  0
 64 65  2  0  0  0  0
 65 66  1  0  0  0  0
 17 66  1  0  0  0  0
 65 67  1  0  0  0  0
 67 68  2  0  0  0  0
 62 68  1  0  0  0  0
 64 69  1  0  0  0  0
 61 70  1  1  0  0  0
 60 71  1  6  0  0  0
 71 72  1  0  0  0  0
 42 72  1  0  0  0  0
 72 73  2  0  0  0  0
 56 74  1  1  0  0  0
 74 75  2  0  0  0  0
 74 76  1  0  0  0  0
 53 77  1  0  0  0  0
 51 78  1  0  0  0  0
 34 79  1  6  0  0  0
 79 80  1  0  0  0  0
 80 81  2  0  0  0  0
 80 82  1  0  0  0  0
 30 83  1  6  0  0  0
 83 84  1  0  0  0  0
 84 85  2  0  0  0  0
 84 86  1  0  0  0  0
 86 87  1  0  0  0  0
 87 88  1  0  0  0  0
 88 89  1  0  0  0  0
 88 90  1  0  0  0  0
 86 91  1  1  0  0  0
 91 92  1  0  0  0  0
 29 93  1  6  0  0  0
 24 94  1  0  0  0  0
 12 95  1  1  0  0  0
 95 96  1  0  0  0  0
 11 97  1  6  0  0  0
 10 98  1  1  0  0  0
  4 99  1  6  0  0  0
  4100  1  1  0  0  0
  3101  1  1  0  0  0
M  END
> <#>
467

> <PLATE>
LAT006

> <ROW>
C

> <COL>
10

> <COORD>
C10

> <LATID>
LAT006C10

> <Supplier>
Sigma

> <Suplier_CAT#>
V-1130

> <Name>
Vancomycin (Hcl)

> <Concentration_(mM)>
2.5

> <IC50_(µM)>
inactive

> <Yeast_Active?>
-

> <Pubchem_CID>
14969

$$$$
