
  -ISIS-  08130814242D

 28 30  0  0  0  0  0  0  0  0999 V2000
    0.5792   -1.3500    0.0000 C   0  0  0  0  0  0  0  0  0  0  0  0
    0.5542   -2.2042    0.0000 C   0  0  0  0  0  0  0  0  0  0  0  0
   -0.1833   -0.9042    0.0000 C   0  0  3  0  0  0  0  0  0  0  0  0
   -0.1833   -2.6292    0.0000 N   0  0  0  0  0  0  0  0  0  0  0  0
   -0.9458   -2.1875    0.0000 C   0  0  0  0  0  0  0  0  0  0  0  0
   -0.1625   -0.0500    0.0000 C   0  0  0  0  0  0  0  0  0  0  0  0
   -0.9208   -1.3292    0.0000 N   0  0  0  0  0  0  0  0  0  0  0  0
    1.3167   -0.9042    0.0000 C   0  0  0  0  0  0  0  0  0  0  0  0
    0.5792    0.3958    0.0000 C   0  0  0  0  0  0  0  0  0  0  0  0
    1.3167   -2.6292    0.0000 C   0  0  0  0  0  0  0  0  0  0  0  0
   -1.7000   -2.5875    0.0000 O   0  0  0  0  0  0  0  0  0  0  0  0
    0.6000    1.2500    0.0000 C   0  0  0  0  0  0  0  0  0  0  0  0
    2.0542   -1.3500    0.0000 O   0  0  0  0  0  0  0  0  0  0  0  0
    1.1500    0.0625    0.0000 O   0  0  0  0  0  0  0  0  0  0  0  0
    1.6000   -0.2042    0.0000 O   0  0  0  0  0  0  0  0  0  0  0  0
   -0.9208    0.4125    0.0000 C   0  0  0  0  0  0  0  0  0  0  0  0
    1.1667    1.5458    0.0000 O   0  0  0  0  0  0  0  0  0  0  0  0
   -0.9000    1.2500    0.0000 C   0  0  0  0  0  0  0  0  0  0  0  0
   -0.1625    1.6708    0.0000 C   0  0  0  0  0  0  0  0  0  0  0  0
    2.0542   -2.1875    0.0000 C   0  0  0  0  0  0  0  0  0  0  0  0
    1.3167   -3.4667    0.0000 C   0  0  0  0  0  0  0  0  0  0  0  0
    2.3375   -0.1542    0.0000 C   0  0  0  0  0  0  0  0  0  0  0  0
    1.7542    0.5958    0.0000 C   0  0  0  0  0  0  0  0  0  0  0  0
    1.8167    1.1708    0.0000 C   0  0  0  0  0  0  0  0  0  0  0  0
    2.9000   -0.6375    0.0000 C   0  0  0  0  0  0  0  0  0  0  0  0
    2.8000   -2.6042    0.0000 C   0  0  0  0  0  0  0  0  0  0  0  0
    2.0542   -3.9042    0.0000 C   0  0  0  0  0  0  0  0  0  0  0  0
    2.8167   -3.4875    0.0000 C   0  0  0  0  0  0  0  0  0  0  0  0
  2  1  2  0  0  0  0
  3  1  1  0  0  0  0
  4  2  1  0  0  0  0
  5  7  1  0  0  0  0
  6  3  1  0  0  0  0
  7  3  1  0  0  0  0
  8  1  1  0  0  0  0
  9  6  1  0  0  0  0
 10  2  1  0  0  0  0
 11  5  2  0  0  0  0
 12  9  2  0  0  0  0
 13  8  2  0  0  0  0
 14  9  1  0  0  0  0
 15  8  1  0  0  0  0
 16  6  2  0  0  0  0
 17 12  1  0  0  0  0
 18 16  1  0  0  0  0
 19 18  2  0  0  0  0
 20 10  1  0  0  0  0
 21 10  2  0  0  0  0
 22 15  1  0  0  0  0
 23 14  1  0  0  0  0
 24 17  1  0  0  0  0
 25 22  1  0  0  0  0
 26 20  2  0  0  0  0
 27 21  1  0  0  0  0
 28 27  2  0  0  0  0
  4  5  1  0  0  0  0
 12 19  1  0  0  0  0
 26 28  1  0  0  0  0
M  END
> <#>
898

> <PLATE>
LAT012

> <ROW>
B

> <COL>
4

> <COORD>
B04

> <LATID>
LAT012B04

> <Supplier>
Chembridge

> <Suplier_CAT#>
5678211

> <Name>
Novel

> <Sec_Name>
215_F08

> <Concentration_(mM)>
2.5

> <IC50_(µM)>
27

> <Yeast_Active?>
-

> <Pubchem_CID>
996239

$$$$
