
  -ISIS-  08130814242D

  9  6  0  0  0  0  0  0  0  0999 V2000
    6.5048   -3.2859    0.0000 Cd  0  2  0  0  0  0  0  0  0  0  0  0
    7.8432   -4.0587    0.0000 C   0  0  0  0  0  0  0  0  0  0  0  0
    8.7356   -4.0587    0.0000 C   0  0  0  0  0  0  0  0  0  0  0  0
    7.3971   -4.8315    0.0000 O   0  0  0  0  0  0  0  0  0  0  0  0
    7.3971   -3.2859    0.0000 O   0  5  0  0  0  0  0  0  0  0  0  0
    5.1663   -2.5132    0.0000 C   0  0  0  0  0  0  0  0  0  0  0  0
    4.7201   -3.2859    0.0000 C   0  0  0  0  0  0  0  0  0  0  0  0
    4.7201   -1.7404    0.0000 O   0  0  0  0  0  0  0  0  0  0  0  0
    6.0586   -2.5132    0.0000 O   0  5  0  0  0  0  0  0  0  0  0  0
  2  4  2  0  0  0  0
  2  5  1  0  0  0  0
  2  3  1  0  0  0  0
  6  7  1  0  0  0  0
  6  8  2  0  0  0  0
  6  9  1  0  0  0  0
M  CHG  3   1   2   5  -1   9  -1
M  END
> <#>
528

> <PLATE>
LAT007

> <ROW>
H

> <COL>
7

> <COORD>
H07

> <LATID>
LAT007H07

> <Supplier>
BDH

> <Suplier_CAT#>
Cadmium_acetate

> <Name>
Cadmium Acetate

> <Concentration_(mM)>
2.5

> <IC50_(µM)>
82

> <Yeast_Active?>
+

> <Pubchem_CID>
10986

$$$$
