
  -ISIS-  08130814242D

 25 27  0  0  0  0  0  0  0  0999 V2000
   -2.0500   -0.0500    0.0000 C   0  0  0  0  0  0  0  0  0  0  0  0
   -1.3125    0.3708    0.0000 C   0  0  3  0  0  0  0  0  0  0  0  0
   -2.7708    0.3708    0.0000 C   0  0  0  0  0  0  0  0  0  0  0  0
   -2.0333    1.6333    0.0000 C   0  0  0  0  0  0  0  0  0  0  0  0
   -2.7500    1.2125    0.0000 N   0  0  0  0  0  0  0  0  0  0  0  0
   -1.3125    1.2125    0.0000 N   0  0  0  0  0  0  0  0  0  0  0  0
   -2.0500   -0.8875    0.0000 C   0  0  0  0  0  0  0  0  0  0  0  0
   -0.5958   -0.0292    0.0000 C   0  0  0  0  0  0  0  0  0  0  0  0
   -2.0333    2.4708    0.0000 S   0  0  0  0  0  0  0  0  0  0  0  0
    0.1375    0.3833    0.0000 C   0  0  0  0  0  0  0  0  0  0  0  0
   -2.7708   -1.3042    0.0000 O   0  0  0  0  0  0  0  0  0  0  0  0
    0.8542   -0.0292    0.0000 C   0  0  0  0  0  0  0  0  0  0  0  0
    1.4875    0.3333    0.0000 O   0  0  0  0  0  0  0  0  0  0  0  0
   -1.3333   -1.3042    0.0000 O   0  0  0  0  0  0  0  0  0  0  0  0
   -3.4958   -0.0667    0.0000 C   0  0  0  0  0  0  0  0  0  0  0  0
    1.4875    1.1500    0.0000 C   0  0  0  0  0  0  0  0  0  0  0  0
   -0.5958   -0.8667    0.0000 C   0  0  0  0  0  0  0  0  0  0  0  0
    0.1375   -1.3000    0.0000 C   0  0  0  0  0  0  0  0  0  0  0  0
    0.8667   -0.8667    0.0000 C   0  0  0  0  0  0  0  0  0  0  0  0
   -1.3333   -2.1500    0.0000 C   0  0  0  0  0  0  0  0  0  0  0  0
    0.7667    1.5500    0.0000 C   0  0  0  0  0  0  0  0  0  0  0  0
    2.2042    1.5708    0.0000 C   0  0  0  0  0  0  0  0  0  0  0  0
    2.1792    2.4000    0.0000 C   0  0  0  0  0  0  0  0  0  0  0  0
    0.7542    2.3833    0.0000 C   0  0  0  0  0  0  0  0  0  0  0  0
    1.4667    2.8000    0.0000 C   0  0  0  0  0  0  0  0  0  0  0  0
  2  1  1  0  0  0  0
  3  1  2  0  0  0  0
  4  5  1  0  0  0  0
  5  3  1  0  0  0  0
  6  2  1  0  0  0  0
  7  1  1  0  0  0  0
  8  2  1  0  0  0  0
  9  4  2  0  0  0  0
 10  8  2  0  0  0  0
 11  7  2  0  0  0  0
 12 10  1  0  0  0  0
 13 12  1  0  0  0  0
 14  7  1  0  0  0  0
 15  3  1  0  0  0  0
 16 13  1  0  0  0  0
 17  8  1  0  0  0  0
 18 17  2  0  0  0  0
 19 18  1  0  0  0  0
 20 14  1  0  0  0  0
 21 16  2  0  0  0  0
 22 16  1  0  0  0  0
 23 22  2  0  0  0  0
 24 21  1  0  0  0  0
 25 23  1  0  0  0  0
  6  4  1  0  0  0  0
 19 12  2  0  0  0  0
 24 25  2  0  0  0  0
M  END
> <#>
853

> <PLATE>
LAT011

> <ROW>
E

> <COL>
8

> <COORD>
E08

> <LATID>
LAT011E08

> <Supplier>
Chembridge

> <Suplier_CAT#>
5651219

> <Name>
Novel

> <Sec_Name>
199_B05

> <Concentration_(mM)>
2.5

> <IC50_(µM)>
22

> <Yeast_Active?>
-

> <Pubchem_CID>
1354490

$$$$
