
  -ISIS-  08130814242D

 20 21  0  0  0  0  0  0  0  0999 V2000
   -1.1208    0.3458    0.0000 C   0  0  0  0  0  0  0  0  0  0  0  0
   -1.9208    0.3458    0.0000 C   0  0  0  0  0  0  0  0  0  0  0  0
    0.0542    1.0208    0.0000 N   0  0  0  0  0  0  0  0  0  0  0  0
    1.6375    1.0208    0.0000 C   0  0  0  0  0  0  0  0  0  0  0  0
    1.2375    0.3458    0.0000 C   0  0  0  0  0  0  0  0  0  0  0  0
    0.4542    0.3458    0.0000 C   0  0  0  0  0  0  0  0  0  0  0  0
   -0.7458    1.0208    0.0000 N   0  0  0  0  0  0  0  0  0  0  0  0
   -0.7458   -0.3542    0.0000 O   0  0  0  0  0  0  0  0  0  0  0  0
   -3.1000   -0.3542    0.0000 N   0  0  0  0  0  0  0  0  0  0  0  0
    1.6375   -0.3542    0.0000 Br  0  0  0  0  0  0  0  0  0  0  0  0
    2.4167    1.0208    0.0000 C   0  0  0  0  0  0  0  0  0  0  0  0
   -2.3000   -0.3542    0.0000 C   0  0  0  0  0  0  0  0  0  0  0  0
   -2.3000    1.0208    0.0000 C   0  0  0  0  0  0  0  0  0  0  0  0
   -3.4833    0.3458    0.0000 C   0  0  0  0  0  0  0  0  0  0  0  0
    2.8167    0.3458    0.0000 C   0  0  0  0  0  0  0  0  0  0  0  0
    2.8167    1.7000    0.0000 C   0  0  0  0  0  0  0  0  0  0  0  0
   -3.1000    1.0208    0.0000 C   0  0  0  0  0  0  0  0  0  0  0  0
    3.6000    1.7000    0.0000 C   0  0  0  0  0  0  0  0  0  0  0  0
    3.6000    0.3458    0.0000 C   0  0  0  0  0  0  0  0  0  0  0  0
    4.0000    1.0208    0.0000 C   0  0  0  0  0  0  0  0  0  0  0  0
  2  1  1  0  0  0  0
  3  7  1  0  0  0  0
  4  5  2  0  0  0  0
  5  6  1  0  0  0  0
  6  3  2  0  0  0  0
  7  1  1  0  0  0  0
  8  1  2  0  0  0  0
  9 12  2  0  0  0  0
 10  5  1  0  0  0  0
 11  4  1  0  0  0  0
 12  2  1  0  0  0  0
 13  2  2  0  0  0  0
 14 17  2  0  0  0  0
 15 11  2  0  0  0  0
 16 11  1  0  0  0  0
 17 13  1  0  0  0  0
 18 16  2  0  0  0  0
 19 15  1  0  0  0  0
 20 18  1  0  0  0  0
 14  9  1  0  0  0  0
 20 19  2  0  0  0  0
M  END
> <#>
638

> <PLATE>
LAT008

> <ROW>
F

> <COL>
11

> <COORD>
F11

> <LATID>
LAT008F11

> <Supplier>
Chembridge

> <Suplier_CAT#>
5489934

> <Name>
Novel

> <Sec_Name>
148_F10

> <Concentration_(mM)>
2.5

> <IC50_(µM)>
65

> <Yeast_Active?>
-

> <Pubchem_CID>
870618

$$$$
