
  -ISIS-  08130814242D

 29 32  0  0  0  0  0  0  0  0999 V2000
   -2.7125    0.8708    0.0000 C   0  0  0  0  0  0  0  0  0  0  0  0
    2.0000   -0.0667    0.0000 C   0  0  0  0  0  0  0  0  0  0  0  0
   -3.2333    1.1708    0.0000 C   0  0  0  0  0  0  0  0  0  0  0  0
    2.0000   -0.6667    0.0000 C   0  0  0  0  0  0  0  0  0  0  0  0
    1.4792    0.2333    0.0000 N   0  0  0  0  0  0  0  0  0  0  0  0
   -2.7333    0.2708    0.0000 N   0  0  0  0  0  0  0  0  0  0  0  0
   -3.7708    0.8625    0.0000 S   0  0  0  0  0  0  0  0  0  0  0  0
    1.4792   -0.9667    0.0000 S   0  0  0  0  0  0  0  0  0  0  0  0
    2.4417   -1.0792    0.0000 C   0  0  0  0  0  0  0  0  0  0  0  0
   -3.3708    1.7625    0.0000 C   0  0  0  0  0  0  0  0  0  0  0  0
    2.5167    0.2333    0.0000 O   0  0  0  0  0  0  0  0  0  0  0  0
   -2.1958    1.1708    0.0000 O   0  0  0  0  0  0  0  0  0  0  0  0
   -4.2208    1.2708    0.0000 C   0  0  0  0  0  0  0  0  0  0  0  0
    1.6167   -1.5542    0.0000 C   0  0  0  0  0  0  0  0  0  0  0  0
    2.1875   -1.6292    0.0000 C   0  0  0  0  0  0  0  0  0  0  0  0
   -3.9958    1.8000    0.0000 C   0  0  0  0  0  0  0  0  0  0  0  0
   -2.1833   -0.0292    0.0000 C   0  0  3  0  0  0  0  0  0  0  0  0
    0.9542   -0.0667    0.0000 C   0  0  3  0  0  0  0  0  0  0  0  0
   -0.6125   -0.9542    0.0000 C   0  0  0  0  0  0  0  0  0  0  0  0
   -0.0833   -0.6667    0.0000 C   0  0  3  0  0  0  0  0  0  0  0  0
   -1.1458   -0.6375    0.0000 C   0  0  3  0  0  0  0  0  0  0  0  0
   -2.1833   -0.6375    0.0000 C   0  0  0  0  0  0  0  0  0  0  0  0
    0.4375    0.2333    0.0000 C   0  0  0  0  0  0  0  0  0  0  0  0
   -1.6625    0.2625    0.0000 C   0  0  0  0  0  0  0  0  0  0  0  0
    0.9542   -0.6667    0.0000 C   0  0  0  0  0  0  0  0  0  0  0  0
   -1.1458   -0.0292    0.0000 C   0  0  0  0  0  0  0  0  0  0  0  0
   -1.6625   -0.9375    0.0000 C   0  0  0  0  0  0  0  0  0  0  0  0
   -0.0833   -0.0667    0.0000 C   0  0  0  0  0  0  0  0  0  0  0  0
    0.4375   -0.9667    0.0000 C   0  0  0  0  0  0  0  0  0  0  0  0
  2  5  1  0  0  0  0
  3  1  1  0  0  0  0
  4  2  1  0  0  0  0
  5 18  1  0  0  0  0
  6  1  1  0  0  0  0
  7  3  1  0  0  0  0
  8  4  1  0  0  0  0
  9  4  2  0  0  0  0
 10  3  2  0  0  0  0
 11  2  2  0  0  0  0
 12  1  2  0  0  0  0
 13  7  1  0  0  0  0
 14  8  1  0  0  0  0
 15  9  1  0  0  0  0
 16 10  1  0  0  0  0
 17  6  1  0  0  0  0
 18 25  1  0  0  0  0
 19 21  1  0  0  0  0
 20 19  1  0  0  0  0
 21 26  1  0  0  0  0
 22 17  1  0  0  0  0
 23 28  1  0  0  0  0
 24 17  1  0  0  0  0
 25 29  1  0  0  0  0
 26 24  1  0  0  0  0
 27 22  1  0  0  0  0
 28 20  1  0  0  0  0
 29 20  1  0  0  0  0
 13 16  2  0  0  0  0
 27 21  1  0  0  0  0
 18 23  1  0  0  0  0
 14 15  2  0  0  0  0
M  END
> <#>
1002

> <PLATE>
LAT013

> <ROW>
B

> <COL>
7

> <COORD>
B07

> <LATID>
LAT013B07

> <Supplier>
Chembridge

> <Suplier_CAT#>
5547438

> <Name>
Novel

> <Sec_Name>
162_D09

> <Concentration_(mM)>
2.5

> <IC50_(µM)>
>100

> <Yeast_Active?>
-

> <Pubchem_CID>
2249379

$$$$
