
  -ISIS-  08130814242D

 23 24  0  0  0  0  0  0  0  0999 V2000
    0.4292    1.8125    0.0000 C   0  0  3  0  0  0  0  0  0  0  0  0
    0.1500    1.3125    0.0000 C   0  0  0  0  0  0  0  0  0  0  0  0
   -1.5708    1.3125    0.0000 C   0  0  0  0  0  0  0  0  0  0  0  0
   -2.1500    1.3125    0.0000 C   0  0  0  0  0  0  0  0  0  0  0  0
   -1.2958    0.8125    0.0000 N   0  0  0  0  0  0  0  0  0  0  0  0
   -2.4333    1.8125    0.0000 C   0  0  0  0  0  0  0  0  0  0  0  0
   -0.4333    1.3125    0.0000 C   0  0  0  0  0  0  0  0  0  0  0  0
   -0.7125    0.8125    0.0000 C   0  0  0  0  0  0  0  0  0  0  0  0
   -1.2958    1.8125    0.0000 O   0  0  0  0  0  0  0  0  0  0  0  0
    0.7000    2.3000    0.0000 F   0  0  0  0  0  0  0  0  0  0  0  0
   -0.0708    2.0958    0.0000 F   0  0  0  0  0  0  0  0  0  0  0  0
    0.9292    1.5333    0.0000 F   0  0  0  0  0  0  0  0  0  0  0  0
   -3.0125    1.8125    0.0000 C   0  0  0  0  0  0  0  0  0  0  0  0
   -4.1708    1.8125    0.0000 C   0  0  0  0  0  0  0  0  0  0  0  0
   -3.3125    1.3125    0.0000 C   0  0  0  0  0  0  0  0  0  0  0  0
   -3.3125    2.3125    0.0000 C   0  0  0  0  0  0  0  0  0  0  0  0
   -3.8708    1.3125    0.0000 C   0  0  0  0  0  0  0  0  0  0  0  0
   -3.8708    2.3125    0.0000 C   0  0  0  0  0  0  0  0  0  0  0  0
   -4.7458    1.8125    0.0000 O   0  0  0  0  0  0  0  0  0  0  0  0
    0.4500    0.8125    0.0000 C   0  0  0  0  0  0  0  0  0  0  0  0
    0.1500    0.3125    0.0000 C   0  0  0  0  0  0  0  0  0  0  0  0
   -0.4333    0.3125    0.0000 C   0  0  0  0  0  0  0  0  0  0  0  0
   -5.0208    2.3000    0.0000 C   0  0  0  0  0  0  0  0  0  0  0  0
  2  1  1  0  0  0  0
  3  5  1  0  0  0  0
  4  3  1  0  0  0  0
  5  8  1  0  0  0  0
  6  4  2  0  0  0  0
  7  2  2  0  0  0  0
  8  7  1  0  0  0  0
  9  3  2  0  0  0  0
 10  1  1  0  0  0  0
 11  1  1  0  0  0  0
 12  1  1  0  0  0  0
 13  6  1  0  0  0  0
 14 18  2  0  0  0  0
 15 13  1  0  0  0  0
 16 13  2  0  0  0  0
 17 15  2  0  0  0  0
 18 16  1  0  0  0  0
 19 14  1  0  0  0  0
 20  2  1  0  0  0  0
 21 20  2  0  0  0  0
 22 21  1  0  0  0  0
 23 19  1  0  0  0  0
 22  8  2  0  0  0  0
 14 17  1  0  0  0  0
M  END
> <#>
729

> <PLATE>
LAT010

> <ROW>
A

> <COL>
3

> <COORD>
A03

> <LATID>
LAT010A03

> <Supplier>
Chembridge

> <Suplier_CAT#>
5568088

> <Name>
Novel

> <Sec_Name>
173_H05

> <Concentration_(mM)>
2.5

> <IC50_(µM)>
24

> <Yeast_Active?>
-

> <Pubchem_CID>
760502

$$$$
