
  -ISIS-  08130814242D

 21 22  0  0  0  0  0  0  0  0999 V2000
    2.8875   -1.3792    0.0000 C   0  0  0  0  0  0  0  0  0  0  0  0
    3.5375   -2.5042    0.0000 N   0  0  0  0  0  0  0  0  0  0  0  0
    1.5875   -1.3792    0.0000 N   0  0  0  0  0  0  0  0  0  0  0  0
    3.5375   -1.7542    0.0000 N   0  0  0  0  0  0  0  0  0  0  0  0
    0.9375   -1.7500    0.0000 C   0  0  0  0  0  0  0  0  0  0  0  0
    2.8875   -0.6292    0.0000 O   0  0  0  0  0  0  0  0  0  0  0  0
    2.2375   -1.7500    0.0000 C   0  0  0  0  0  0  0  0  0  0  0  0
    0.2875   -1.3667    0.0000 C   0  0  0  0  0  0  0  0  0  0  0  0
    4.1875   -2.8792    0.0000 C   0  0  0  0  0  0  0  0  0  0  0  0
    4.8375   -2.5042    0.0000 C   0  0  0  0  0  0  0  0  0  0  0  0
    6.1375   -1.7542    0.0000 C   0  0  0  0  0  0  0  0  0  0  0  0
    6.7875   -1.3792    0.0000 Cl  0  0  0  0  0  0  0  0  0  0  0  0
    5.4875   -1.3792    0.0000 C   0  0  0  0  0  0  0  0  0  0  0  0
    6.1375   -2.5042    0.0000 C   0  0  0  0  0  0  0  0  0  0  0  0
    4.8375   -1.7542    0.0000 C   0  0  0  0  0  0  0  0  0  0  0  0
    5.4875   -2.8792    0.0000 C   0  0  0  0  0  0  0  0  0  0  0  0
    0.9375   -2.5042    0.0000 C   0  0  0  0  0  0  0  0  0  0  0  0
    0.2875   -0.6167    0.0000 C   0  0  0  0  0  0  0  0  0  0  0  0
   -0.3500   -1.7500    0.0000 C   0  0  0  0  0  0  0  0  0  0  0  0
   -0.3500   -2.5042    0.0000 C   0  0  0  0  0  0  0  0  0  0  0  0
    0.2875   -2.8792    0.0000 C   0  0  0  0  0  0  0  0  0  0  0  0
  2  4  1  0  0  0  0
  3  7  1  0  0  0  0
  4  1  1  0  0  0  0
  5  3  1  0  0  0  0
  6  1  2  0  0  0  0
  7  1  1  0  0  0  0
  8  5  1  0  0  0  0
  9  2  2  0  0  0  0
 10  9  1  0  0  0  0
 11 14  1  0  0  0  0
 12 11  1  0  0  0  0
 13 15  1  0  0  0  0
 14 16  2  0  0  0  0
 15 10  2  0  0  0  0
 16 10  1  0  0  0  0
 17  5  2  0  0  0  0
 18  8  1  0  0  0  0
 19  8  2  0  0  0  0
 20 21  2  0  0  0  0
 21 17  1  0  0  0  0
 20 19  1  0  0  0  0
 13 11  2  0  0  0  0
M  END
> <#>
693

> <PLATE>
LAT009

> <ROW>
E

> <COL>
8

> <COORD>
E08

> <LATID>
LAT009E08

> <Supplier>
Chembridge

> <Suplier_CAT#>
5556899

> <Name>
Novel

> <Sec_Name>
166_C08

> <Concentration_(mM)>
2.5

> <IC50_(µM)>
100

> <Yeast_Active?>
-

> <Pubchem_CID>
758765

$$$$
