
  -ISIS-  08130814242D

 20 23  0  0  0  0  0  0  0  0999 V2000
   -2.0000    1.9583    0.0000 C   0  0  0  0  0  0  0  0  0  0  0  0
   -2.4625    2.5958    0.0000 N   0  0  0  0  0  0  0  0  0  0  0  0
    0.3792    1.8958    0.0000 N   0  0  0  0  0  0  0  0  0  0  0  0
   -2.4625    1.3333    0.0000 N   0  0  0  0  0  0  0  0  0  0  0  0
   -0.0500    1.2708    0.0000 C   0  0  0  0  0  0  0  0  0  0  0  0
    0.4167    0.6500    0.0000 N   0  0  0  0  0  0  0  0  0  0  0  0
   -3.2000    2.3500    0.0000 C   0  0  0  0  0  0  0  0  0  0  0  0
    1.1167    1.6958    0.0000 C   0  0  0  0  0  0  0  0  0  0  0  0
   -3.2000    1.5708    0.0000 C   0  0  0  0  0  0  0  0  0  0  0  0
    1.1500    0.9125    0.0000 C   0  0  0  0  0  0  0  0  0  0  0  0
   -1.2208    1.9583    0.0000 S   0  0  0  0  0  0  0  0  0  0  0  0
   -0.8208    1.2708    0.0000 C   0  0  0  0  0  0  0  0  0  0  0  0
   -3.8833    2.7500    0.0000 C   0  0  0  0  0  0  0  0  0  0  0  0
    1.7792    2.1125    0.0000 C   0  0  0  0  0  0  0  0  0  0  0  0
   -3.8833    1.1708    0.0000 C   0  0  0  0  0  0  0  0  0  0  0  0
    1.8375    0.5625    0.0000 C   0  0  0  0  0  0  0  0  0  0  0  0
   -4.5625    2.3500    0.0000 C   0  0  0  0  0  0  0  0  0  0  0  0
   -4.5625    1.5708    0.0000 C   0  0  0  0  0  0  0  0  0  0  0  0
    2.5000    0.9708    0.0000 C   0  0  0  0  0  0  0  0  0  0  0  0
    2.4667    1.7500    0.0000 C   0  0  0  0  0  0  0  0  0  0  0  0
  2  1  2  0  0  0  0
  3  5  2  0  0  0  0
  4  1  1  0  0  0  0
  5 12  1  0  0  0  0
  6  5  1  0  0  0  0
  7  2  1  0  0  0  0
  8  3  1  0  0  0  0
  9  4  1  0  0  0  0
 10  6  1  0  0  0  0
 11  1  1  0  0  0  0
 12 11  1  0  0  0  0
 13  7  1  0  0  0  0
 14  8  2  0  0  0  0
 15  9  1  0  0  0  0
 16 10  2  0  0  0  0
 17 13  2  0  0  0  0
 18 15  2  0  0  0  0
 19 16  1  0  0  0  0
 20 14  1  0  0  0  0
  9  7  2  0  0  0  0
 18 17  1  0  0  0  0
  8 10  1  0  0  0  0
 20 19  2  0  0  0  0
M  END
> <#>
632

> <PLATE>
LAT008

> <ROW>
H

> <COL>
10

> <COORD>
H10

> <LATID>
LAT008H10

> <Supplier>
Chembridge

> <Suplier_CAT#>
5487197

> <Name>
Novel

> <Sec_Name>
148_E05

> <Concentration_(mM)>
2.5

> <IC50_(µM)>
100

> <Yeast_Active?>
-

> <Pubchem_CID>
NULL

$$$$
