
  -ISIS-  08130814242D

  6  6  0  0  0  0  0  0  0  0999 V2000
    5.0598   -2.6227    0.0000 N   0  0  0  0  0  0  0  0  0  0  0  0
    6.2487   -2.2365    0.0000 N   0  0  0  0  0  0  0  0  0  0  0  0
    6.9834   -3.2477    0.0000 C   0  0  0  0  0  0  0  0  0  0  0  0
    6.2487   -4.2590    0.0000 N   0  0  0  0  0  0  0  0  0  0  0  0
    5.0598   -3.8727    0.0000 C   0  0  0  0  0  0  0  0  0  0  0  0
    8.2334   -3.2477    0.0000 N   0  0  0  0  0  0  0  0  0  0  0  0
  1  2  1  0  0  0  0
  2  3  2  0  0  0  0
  3  4  1  0  0  0  0
  4  5  2  0  0  0  0
  1  5  1  0  0  0  0
  3  6  1  0  0  0  0
M  END
> <#>
385

> <PLATE>
LAT005

> <ROW>
A

> <COL>
10

> <COORD>
A10

> <LATID>
LAT005A10

> <Supplier>
Sigma

> <Suplier_CAT#>
A-4383

> <Name>
3-Amino-1,2,4-Triazole

> <Concentration_(mM)>
2.5

> <IC50_(µM)>
51

> <Yeast_Active?>
-

> <Pubchem_CID>
1639

$$$$
