
  -ISIS-  08130814242D

 37 41  0  0  0  0  0  0  0  0999 V2000
    4.0875   -5.1667    0.0000 N   0  0  3  0  0  0  0  0  0  0  0  0
    3.3708   -5.5750    0.0000 C   0  0  0  0  0  0  0  0  0  0  0  0
    3.3662   -6.3953    0.0000 C   0  0  0  0  0  0  0  0  0  0  0  0
    4.0764   -6.8134    0.0000 O   0  0  0  0  0  0  0  0  0  0  0  0
    4.7931   -6.4051    0.0000 C   0  0  0  0  0  0  0  0  0  0  0  0
    4.7995   -5.5786    0.0000 C   0  0  0  0  0  0  0  0  0  0  0  0
    4.1125   -1.8792    0.0000 C   0  0  0  0  0  0  0  0  0  0  0  0
    4.1083   -2.7042    0.0000 C   0  0  0  0  0  0  0  0  0  0  0  0
    0.5444   -0.6458    0.0000 C   0  0  0  0  0  0  0  0  0  0  0  0
    0.5432   -1.4732    0.0000 C   0  0  0  0  0  0  0  0  0  0  0  0
    1.9716   -0.6422    0.0000 C   0  0  0  0  0  0  0  0  0  0  0  0
    1.2563   -0.2330    0.0000 C   0  0  0  0  0  0  0  0  0  0  0  0
    1.9745   -1.4727    0.0000 C   0  0  0  0  0  0  0  0  0  0  0  0
    1.2572   -1.8838    0.0000 C   0  0  0  0  0  0  0  0  0  0  0  0
    1.2557   -2.7087    0.0000 C   0  0  0  0  0  0  0  0  0  0  0  0
    1.9706   -3.1234    0.0000 C   0  0  0  0  0  0  0  0  0  0  0  0
    2.6886   -2.7072    0.0000 C   0  0  0  0  0  0  0  0  0  0  0  0
    2.6867   -1.8837    0.0000 C   0  0  0  0  0  0  0  0  0  0  0  0
    3.4006   -1.4703    0.0000 C   0  0  0  0  0  0  0  0  0  0  0  0
    5.5414   -1.8864    0.0000 C   0  0  0  0  0  0  0  0  0  0  0  0
    6.9608   -2.7195    0.0000 C   0  0  0  0  0  0  0  0  0  0  0  0
    6.9634   -1.8920    0.0000 C   0  0  0  0  0  0  0  0  0  0  0  0
    6.2533   -1.4798    0.0000 C   0  0  0  0  0  0  0  0  0  0  0  0
    5.5349   -2.7106    0.0000 C   0  0  0  0  0  0  0  0  0  0  0  0
    4.8180   -3.1167    0.0000 N   0  0  3  0  0  0  0  0  0  0  0  0
    4.8113   -3.9361    0.0000 C   0  0  1  0  0  0  0  0  0  0  0  0
    5.5197   -4.3556    0.0000 C   0  0  0  0  0  0  0  0  0  0  0  0
    6.2366   -3.9495    0.0000 O   0  0  0  0  0  0  0  0  0  0  0  0
    6.2451   -3.1239    0.0000 C   0  0  0  0  0  0  0  0  0  0  0  0
    4.0928   -4.3417    0.0000 C   0  0  0  0  0  0  0  0  0  0  0  0
    3.3922   -3.1138    0.0000 C   0  0  0  0  0  0  0  0  0  0  0  0
    3.3992   -0.6453    0.0000 O   0  0  0  0  0  0  0  0  0  0  0  0
    9.2792   -3.8292    0.0000 C   0  0  0  0  0  0  0  0  0  0  0  0
   10.1042   -3.8292    0.0000 S   0  0  3  0  0  0  0  0  0  0  0  0
   10.0976   -4.6530    0.0000 O   0  0  0  0  0  0  0  0  0  0  0  0
   10.9249   -3.8227    0.0000 O   0  0  0  0  0  0  0  0  0  0  0  0
   10.1075   -3.0020    0.0000 O   0  0  0  0  0  0  0  0  0  0  0  0
  8 25  1  0  0  0  0
 17 18  1  0  0  0  0
 18 13  2  0  0  0  0
  7 20  1  0  0  0  0
 18 19  1  0  0  0  0
 19  7  1  0  0  0  0
  1  2  1  0  0  0  0
 20 24  2  0  0  0  0
  1  6  1  0  0  0  0
 29 21  2  0  0  0  0
  9 10  2  0  0  0  0
 21 22  1  0  0  0  0
 10 14  1  0  0  0  0
 22 23  2  0  0  0  0
 23 20  1  0  0  0  0
 24 25  1  0  0  0  0
  2  3  1  0  0  0  0
 13 11  1  0  0  0  0
  3  4  1  0  0  0  0
 11 12  2  0  0  0  0
 12  9  1  0  0  0  0
  4  5  1  0  0  0  0
 24 29  1  0  0  0  0
 25 26  1  0  0  0  0
 26 27  1  0  0  0  0
 27 28  1  0  0  0  0
 28 29  1  0  0  0  0
  5  6  1  0  0  0  0
 26 30  1  1  0  0  0
 30  1  1  0  0  0  0
 13 14  1  0  0  0  0
  8 31  1  0  0  0  0
  7  8  2  0  0  0  0
 19 32  2  0  0  0  0
 14 15  2  0  0  0  0
 33 34  1  0  0  0  0
 15 16  1  0  0  0  0
 16 17  2  0  0  0  0
 34 35  1  0  0  0  0
 34 36  2  0  0  0  0
 34 37  2  0  0  0  0
M  END
> <#>
290

> <PLATE>
LAT004

> <ROW>
B

> <COL>
8

> <COORD>
B08

> <LATID>
LAT004B08

> <Supplier>
Sigma

> <Suplier_CAT#>
W-102

> <Name>
( R)-(+)-Win 55,212-2 Mesylate

> <Concentration_(mM)>
2.5

> <IC50_(µM)>
5.4

> <Yeast_Active?>
-

> <Pubchem_CID>
6604176

> <Description>
High affinity cannabinoid receptor agonist

$$$$
