
  -ISIS-  08130814242D

 16 18  0  0  0  0  0  0  0  0999 V2000
    2.9792   -1.4250    0.0000 C   0  0  0  0  0  0  0  0  0  0  0  0
    3.5792   -1.4250    0.0000 N   0  0  0  0  0  0  0  0  0  0  0  0
    2.7917   -2.0000    0.0000 N   0  0  3  0  0  0  0  0  0  0  0  0
    3.7667   -2.0000    0.0000 C   0  0  0  0  0  0  0  0  0  0  0  0
    3.2792   -2.3500    0.0000 C   0  0  0  0  0  0  0  0  0  0  0  0
    2.4917   -1.0750    0.0000 S   0  0  0  0  0  0  0  0  0  0  0  0
    4.3375   -2.1792    0.0000 C   0  0  0  0  0  0  0  0  0  0  0  0
    2.1917   -2.0000    0.0000 C   0  0  0  0  0  0  0  0  0  0  0  0
    2.0042   -1.4250    0.0000 C   0  0  0  0  0  0  0  0  0  0  0  0
    4.4625   -2.7667    0.0000 C   0  0  0  0  0  0  0  0  0  0  0  0
    4.7875   -1.7792    0.0000 C   0  0  0  0  0  0  0  0  0  0  0  0
    5.3542   -1.9667    0.0000 C   0  0  0  0  0  0  0  0  0  0  0  0
    5.0375   -2.9542    0.0000 C   0  0  0  0  0  0  0  0  0  0  0  0
    5.4792   -2.5542    0.0000 C   0  0  0  0  0  0  0  0  0  0  0  0
    6.0542   -2.7417    0.0000 C   0  0  0  0  0  0  0  0  0  0  0  0
    6.1792   -3.3292    0.0000 C   0  0  0  0  0  0  0  0  0  0  0  0
  2  1  2  0  0  0  0
  3  1  1  0  0  0  0
  4  2  1  0  0  0  0
  5  3  1  0  0  0  0
  6  1  1  0  0  0  0
  7  4  1  0  0  0  0
  8  3  1  0  0  0  0
  9  6  1  0  0  0  0
 10  7  1  0  0  0  0
 11  7  2  0  0  0  0
 12 11  1  0  0  0  0
 13 10  2  0  0  0  0
 14 12  2  0  0  0  0
 15 14  1  0  0  0  0
 16 15  1  0  0  0  0
  9  8  2  0  0  0  0
  5  4  2  0  0  0  0
 13 14  1  0  0  0  0
M  END
> <#>
919

> <PLATE>
LAT012

> <ROW>
G

> <COL>
6

> <COORD>
G06

> <LATID>
LAT012G06

> <Supplier>
Chembridge

> <Suplier_CAT#>
5691480

> <Name>
Novel

> <Sec_Name>
221_F02

> <Concentration_(mM)>
2.5

> <IC50_(µM)>
47

> <Yeast_Active?>
-

> <Pubchem_CID>
757880

$$$$
