
  -ISIS-  08130814242D

 25 28  0  0  0  0  0  0  0  0999 V2000
   -0.5625    1.9333    0.0000 C   0  0  0  0  0  0  0  0  0  0  0  0
    0.3167    1.9583    0.0000 C   0  0  0  0  0  0  0  0  0  0  0  0
   -1.0708    1.2125    0.0000 N   0  0  0  0  0  0  0  0  0  0  0  0
   -1.0708    2.6458    0.0000 N   0  0  0  0  0  0  0  0  0  0  0  0
    0.7667    2.7083    0.0000 C   0  0  0  0  0  0  0  0  0  0  0  0
    0.7667    1.1708    0.0000 C   0  0  0  0  0  0  0  0  0  0  0  0
   -1.9083    1.5000    0.0000 C   0  0  0  0  0  0  0  0  0  0  0  0
   -1.9083    2.3833    0.0000 C   0  0  0  0  0  0  0  0  0  0  0  0
    0.3167    3.4708    0.0000 O   0  0  0  0  0  0  0  0  0  0  0  0
    1.6375    2.7083    0.0000 C   0  0  0  0  0  0  0  0  0  0  0  0
   -0.9500   -0.4042    0.0000 N   0  0  0  0  0  0  0  0  0  0  0  0
    0.3542    0.4000    0.0000 C   0  0  0  0  0  0  0  0  0  0  0  0
   -0.5333    0.3833    0.0000 C   0  0  0  0  0  0  0  0  0  0  0  0
   -2.6625    1.0458    0.0000 C   0  0  0  0  0  0  0  0  0  0  0  0
   -2.6625    2.8208    0.0000 C   0  0  0  0  0  0  0  0  0  0  0  0
   -0.4833   -1.1667    0.0000 C   0  0  0  0  0  0  0  0  0  0  0  0
    2.0875    3.4708    0.0000 C   0  0  0  0  0  0  0  0  0  0  0  0
    2.0875    1.9333    0.0000 C   0  0  0  0  0  0  0  0  0  0  0  0
    0.8167   -0.3542    0.0000 C   0  0  0  0  0  0  0  0  0  0  0  0
    0.4000   -1.1375    0.0000 C   0  0  0  0  0  0  0  0  0  0  0  0
   -3.4333    1.5000    0.0000 C   0  0  0  0  0  0  0  0  0  0  0  0
   -3.4333    2.3833    0.0000 C   0  0  0  0  0  0  0  0  0  0  0  0
    2.9667    3.4708    0.0000 C   0  0  0  0  0  0  0  0  0  0  0  0
    2.9667    1.9333    0.0000 C   0  0  0  0  0  0  0  0  0  0  0  0
    3.4042    2.7083    0.0000 C   0  0  0  0  0  0  0  0  0  0  0  0
  2  1  1  0  0  0  0
  3  1  2  0  0  0  0
  4  1  1  0  0  0  0
  5  2  1  0  0  0  0
  6  2  2  0  0  0  0
  7  3  1  0  0  0  0
  8  4  1  0  0  0  0
  9  5  2  0  0  0  0
 10  5  1  0  0  0  0
 11 13  2  0  0  0  0
 12  6  1  0  0  0  0
 13 12  1  0  0  0  0
 14  7  2  0  0  0  0
 15  8  2  0  0  0  0
 16 20  2  0  0  0  0
 17 10  2  0  0  0  0
 18 10  1  0  0  0  0
 19 12  2  0  0  0  0
 20 19  1  0  0  0  0
 21 14  1  0  0  0  0
 22 15  1  0  0  0  0
 23 17  1  0  0  0  0
 24 18  2  0  0  0  0
 25 24  1  0  0  0  0
  8  7  1  0  0  0  0
 21 22  2  0  0  0  0
 11 16  1  0  0  0  0
 23 25  2  0  0  0  0
M  END
> <#>
872

> <PLATE>
LAT011

> <ROW>
H

> <COL>
10

> <COORD>
H10

> <LATID>
LAT011H10

> <Supplier>
Chembridge

> <Suplier_CAT#>
5668219

> <Name>
Novel

> <Sec_Name>
211_A06

> <Concentration_(mM)>
2.5

> <IC50_(µM)>
100

> <Yeast_Active?>
-

> <Pubchem_CID>
NULL

$$$$
