
  -ISIS-  08130814242D

 31 34  0  0  0  0  0  0  0  0999 V2000
   -5.4958    1.5958    0.0000 C   0  0  0  0  0  0  0  0  0  0  0  0
   -6.5917    2.2333    0.0000 C   0  0  0  0  0  0  0  0  0  0  0  0
   -5.8833    0.9500    0.0000 C   0  0  0  0  0  0  0  0  0  0  0  0
   -5.8833    2.2333    0.0000 C   0  0  3  0  0  0  0  0  0  0  0  0
   -6.9792    1.5958    0.0000 C   0  0  0  0  0  0  0  0  0  0  0  0
   -6.5917    0.9500    0.0000 N   0  0  0  0  0  0  0  0  0  0  0  0
   -4.7500    1.5958    0.0000 C   0  0  0  0  0  0  0  0  0  0  0  0
   -6.9792    2.8833    0.0000 C   0  0  0  0  0  0  0  0  0  0  0  0
   -5.4958    2.8833    0.0000 C   0  0  0  0  0  0  0  0  0  0  0  0
   -4.3958    0.9500    0.0000 O   0  0  0  0  0  0  0  0  0  0  0  0
   -4.3958    2.2333    0.0000 O   0  0  0  0  0  0  0  0  0  0  0  0
   -6.5917    3.5500    0.0000 O   0  0  0  0  0  0  0  0  0  0  0  0
   -4.7708    2.8833    0.0000 C   0  0  0  0  0  0  0  0  0  0  0  0
   -5.8833    3.5208    0.0000 C   0  0  0  0  0  0  0  0  0  0  0  0
   -7.7042    1.5958    0.0000 C   0  0  0  0  0  0  0  0  0  0  0  0
   -3.6500    0.9500    0.0000 C   0  0  0  0  0  0  0  0  0  0  0  0
   -4.7708    4.1667    0.0000 C   0  0  0  0  0  0  0  0  0  0  0  0
   -5.4958    0.2833    0.0000 C   0  0  0  0  0  0  0  0  0  0  0  0
   -3.2958    0.2958    0.0000 C   0  0  0  0  0  0  0  0  0  0  0  0
   -2.5500   -0.9875    0.0000 C   0  0  0  0  0  0  0  0  0  0  0  0
   -4.3958    3.5208    0.0000 C   0  0  0  0  0  0  0  0  0  0  0  0
   -5.4958    4.1667    0.0000 C   0  0  0  0  0  0  0  0  0  0  0  0
   -4.4333    4.8042    0.0000 Cl  0  0  0  0  0  0  0  0  0  0  0  0
   -2.5500    0.2958    0.0000 C   0  0  0  0  0  0  0  0  0  0  0  0
   -3.6500   -0.3500    0.0000 C   0  0  0  0  0  0  0  0  0  0  0  0
   -3.2958   -0.9875    0.0000 C   0  0  0  0  0  0  0  0  0  0  0  0
   -2.1958   -0.3500    0.0000 C   0  0  0  0  0  0  0  0  0  0  0  0
   -2.1958   -1.6292    0.0000 O   0  0  0  0  0  0  0  0  0  0  0  0
   -7.7042    2.8833    0.0000 C   0  0  0  0  0  0  0  0  0  0  0  0
   -8.0875    2.2333    0.0000 C   0  0  0  0  0  0  0  0  0  0  0  0
   -2.5708   -2.2667    0.0000 C   0  0  0  0  0  0  0  0  0  0  0  0
  2  4  1  0  0  0  0
  3  1  2  0  0  0  0
  4  1  1  0  0  0  0
  5  2  2  0  0  0  0
  6  3  1  0  0  0  0
  7  1  1  0  0  0  0
  8  2  1  0  0  0  0
  9  4  1  0  0  0  0
 10  7  1  0  0  0  0
 11  7  2  0  0  0  0
 12  8  2  0  0  0  0
 13  9  2  0  0  0  0
 14  9  1  0  0  0  0
 15  5  1  0  0  0  0
 16 10  1  0  0  0  0
 17 22  1  0  0  0  0
 18  3  1  0  0  0  0
 19 16  1  0  0  0  0
 20 26  1  0  0  0  0
 21 13  1  0  0  0  0
 22 14  2  0  0  0  0
 23 17  1  0  0  0  0
 24 19  2  0  0  0  0
 25 19  1  0  0  0  0
 26 25  2  0  0  0  0
 27 24  1  0  0  0  0
 28 20  1  0  0  0  0
 29  8  1  0  0  0  0
 30 29  1  0  0  0  0
 31 28  1  0  0  0  0
  5  6  1  0  0  0  0
 21 17  2  0  0  0  0
 15 30  1  0  0  0  0
 27 20  2  0  0  0  0
M  END
> <#>
983

> <PLATE>
LAT013

> <ROW>
G

> <COL>
4

> <COORD>
G04

> <LATID>
LAT013G04

> <Supplier>
Chembridge

> <Suplier_CAT#>
5715484

> <Name>
Novel

> <Sec_Name>
227_H02

> <Concentration_(mM)>
2.5

> <IC50_(µM)>
>100

> <Yeast_Active?>
-

> <Pubchem_CID>
1007525

$$$$
