
  -ISIS-  08130814242D

 22 24  0  0  0  0  0  0  0  0999 V2000
    0.5375    0.0708    0.0000 S   0  0  3  0  0  0  0  0  0  0  0  0
    0.5375    0.6125    0.0000 C   0  0  0  0  0  0  0  0  0  0  0  0
    0.0792    0.8958    0.0000 C   0  0  0  0  0  0  0  0  0  0  0  0
    0.5375   -0.4667    0.0000 N   0  0  0  0  0  0  0  0  0  0  0  0
    0.0792    1.4333    0.0000 C   0  0  0  0  0  0  0  0  0  0  0  0
    1.0167    0.8708    0.0000 C   0  0  0  0  0  0  0  0  0  0  0  0
    1.0792    0.0708    0.0000 O   0  0  0  0  0  0  0  0  0  0  0  0
    0.0000    0.0708    0.0000 O   0  0  0  0  0  0  0  0  0  0  0  0
    0.5375    1.6958    0.0000 C   0  0  0  0  0  0  0  0  0  0  0  0
   -0.3833   -1.5500    0.0000 N   0  0  0  0  0  0  0  0  0  0  0  0
    0.0792   -0.7500    0.0000 C   0  0  0  0  0  0  0  0  0  0  0  0
    1.0167    1.4333    0.0000 C   0  0  0  0  0  0  0  0  0  0  0  0
    0.1000   -1.2875    0.0000 C   0  0  0  0  0  0  0  0  0  0  0  0
    0.5375    2.2333    0.0000 Br  0  0  0  0  0  0  0  0  0  0  0  0
   -0.3833    0.6125    0.0000 C   0  0  0  0  0  0  0  0  0  0  0  0
   -0.3833    1.6958    0.0000 C   0  0  0  0  0  0  0  0  0  0  0  0
   -0.3625   -2.0875    0.0000 C   0  0  0  0  0  0  0  0  0  0  0  0
    0.5542   -1.5500    0.0000 C   0  0  0  0  0  0  0  0  0  0  0  0
   -0.8625    0.8708    0.0000 C   0  0  0  0  0  0  0  0  0  0  0  0
   -0.8625    1.4333    0.0000 C   0  0  0  0  0  0  0  0  0  0  0  0
    0.1000   -2.3667    0.0000 C   0  0  0  0  0  0  0  0  0  0  0  0
    0.5792   -2.0667    0.0000 C   0  0  0  0  0  0  0  0  0  0  0  0
  2  1  1  0  0  0  0
  3  2  1  0  0  0  0
  4  1  1  0  0  0  0
  5  3  1  0  0  0  0
  6  2  2  0  0  0  0
  7  1  2  0  0  0  0
  8  1  2  0  0  0  0
  9 12  2  0  0  0  0
 10 13  1  0  0  0  0
 11  4  1  0  0  0  0
 12  6  1  0  0  0  0
 13 11  1  0  0  0  0
 14  9  1  0  0  0  0
 15  3  2  0  0  0  0
 16  5  2  0  0  0  0
 17 10  2  0  0  0  0
 18 13  2  0  0  0  0
 19 15  1  0  0  0  0
 20 19  2  0  0  0  0
 21 22  2  0  0  0  0
 22 18  1  0  0  0  0
  9  5  1  0  0  0  0
 20 16  1  0  0  0  0
 17 21  1  0  0  0  0
M  END
> <#>
861

> <PLATE>
LAT011

> <ROW>
E

> <COL>
9

> <COORD>
E09

> <LATID>
LAT011E09

> <Supplier>
Chembridge

> <Suplier_CAT#>
5654744

> <Name>
Pyrabactin A

> <Sec_Name>
203_B11

> <Concentration_(mM)>
2.5

> <IC50_(µM)>
4.9

> <Yeast_Active?>
-

> <Pubchem_CID>
1125790

$$$$
