
  -ISIS-  08130814242D

 24 26  0  0  0  0  0  0  0  0999 V2000
   -2.8708    0.2125    0.0000 C   0  0  0  0  0  0  0  0  0  0  0  0
   -3.4958    0.5708    0.0000 C   0  0  0  0  0  0  0  0  0  0  0  0
   -2.8708   -0.5042    0.0000 N   0  0  0  0  0  0  0  0  0  0  0  0
    0.3292   -0.9042    0.0000 C   0  0  0  0  0  0  0  0  0  0  0  0
   -4.1958    0.3500    0.0000 S   0  0  0  0  0  0  0  0  0  0  0  0
    0.9500   -0.5500    0.0000 C   0  0  0  0  0  0  0  0  0  0  0  0
   -0.3125   -0.5292    0.0000 C   0  0  0  0  0  0  0  0  0  0  0  0
   -3.4958    1.3125    0.0000 C   0  0  0  0  0  0  0  0  0  0  0  0
   -2.2333    0.5958    0.0000 O   0  0  0  0  0  0  0  0  0  0  0  0
   -4.5958    0.9500    0.0000 C   0  0  0  0  0  0  0  0  0  0  0  0
   -2.2333   -0.8875    0.0000 C   0  0  0  0  0  0  0  0  0  0  0  0
   -4.1958    1.5333    0.0000 C   0  0  0  0  0  0  0  0  0  0  0  0
    0.9500    0.1958    0.0000 O   0  0  0  0  0  0  0  0  0  0  0  0
    1.5875   -0.9042    0.0000 C   0  0  0  0  0  0  0  0  0  0  0  0
   -0.9500   -0.8875    0.0000 C   0  0  0  0  0  0  0  0  0  0  0  0
   -1.5958   -0.5292    0.0000 C   0  0  0  0  0  0  0  0  0  0  0  0
   -1.5958   -1.9875    0.0000 C   0  0  0  0  0  0  0  0  0  0  0  0
   -2.2333   -1.6292    0.0000 C   0  0  0  0  0  0  0  0  0  0  0  0
    2.2042   -0.5500    0.0000 C   0  0  0  0  0  0  0  0  0  0  0  0
    1.5875   -1.6500    0.0000 C   0  0  0  0  0  0  0  0  0  0  0  0
   -0.9500   -1.6292    0.0000 C   0  0  0  0  0  0  0  0  0  0  0  0
    2.2042   -2.0042    0.0000 C   0  0  0  0  0  0  0  0  0  0  0  0
    2.8500   -0.9042    0.0000 C   0  0  0  0  0  0  0  0  0  0  0  0
    2.8500   -1.6292    0.0000 C   0  0  0  0  0  0  0  0  0  0  0  0
  2  1  1  0  0  0  0
  3  1  1  0  0  0  0
  4  7  2  0  0  0  0
  5  2  1  0  0  0  0
  6  4  1  0  0  0  0
  7 15  1  0  0  0  0
  8  2  2  0  0  0  0
  9  1  2  0  0  0  0
 10  5  1  0  0  0  0
 11  3  1  0  0  0  0
 12  8  1  0  0  0  0
 13  6  2  0  0  0  0
 14  6  1  0  0  0  0
 15 16  1  0  0  0  0
 16 11  2  0  0  0  0
 17 18  2  0  0  0  0
 18 11  1  0  0  0  0
 19 14  2  0  0  0  0
 20 14  1  0  0  0  0
 21 17  1  0  0  0  0
 22 20  2  0  0  0  0
 23 19  1  0  0  0  0
 24 22  1  0  0  0  0
 12 10  2  0  0  0  0
 21 15  2  0  0  0  0
 23 24  2  0  0  0  0
M  END
> <#>
555

> <PLATE>
LAT007

> <ROW>
C

> <COL>
11

> <COORD>
C11

> <LATID>
LAT007C11

> <Supplier>
Chembridge

> <Suplier_CAT#>
5472244

> <Name>
Novel

> <Sec_Name>
135_G04

> <Concentration_(mM)>
2.5

> <IC50_(µM)>
>100

> <Yeast_Active?>
-

> <Pubchem_CID>
2847523

$$$$
