
  -ISIS-  08130814242D

 22 24  0  0  0  0  0  0  0  0999 V2000
   -2.9708   -1.4375    0.0000 C   0  0  0  0  0  0  0  0  0  0  0  0
   -2.2500   -0.2000    0.0000 N   0  0  0  0  0  0  0  0  0  0  0  0
   -1.5333   -0.6167    0.0000 C   0  0  0  0  0  0  0  0  0  0  0  0
   -2.2500   -1.8542    0.0000 C   0  0  0  0  0  0  0  0  0  0  0  0
   -1.5333   -1.4375    0.0000 O   0  0  0  0  0  0  0  0  0  0  0  0
   -2.9708   -0.6167    0.0000 C   0  0  0  0  0  0  0  0  0  0  0  0
   -3.6708   -1.8542    0.0000 C   0  0  0  0  0  0  0  0  0  0  0  0
   -3.6708   -0.2000    0.0000 C   0  0  0  0  0  0  0  0  0  0  0  0
   -4.3958   -1.4375    0.0000 C   0  0  0  0  0  0  0  0  0  0  0  0
   -4.3958   -0.6167    0.0000 C   0  0  0  0  0  0  0  0  0  0  0  0
   -0.7125   -0.6167    0.0000 C   0  0  0  0  0  0  0  0  0  0  0  0
   -2.2500   -2.6792    0.0000 O   0  0  0  0  0  0  0  0  0  0  0  0
    0.0042   -0.2000    0.0000 C   0  0  0  0  0  0  0  0  0  0  0  0
   -0.7125   -1.4375    0.0000 C   0  0  0  0  0  0  0  0  0  0  0  0
    0.7292   -1.4375    0.0000 C   0  0  0  0  0  0  0  0  0  0  0  0
   -5.1125   -1.8542    0.0000 O   0  0  0  0  0  0  0  0  0  0  0  0
   -5.1125   -0.2000    0.0000 O   0  0  0  0  0  0  0  0  0  0  0  0
    0.7292   -0.6167    0.0000 C   0  0  0  0  0  0  0  0  0  0  0  0
    0.0042   -1.8542    0.0000 C   0  0  0  0  0  0  0  0  0  0  0  0
    1.4500   -1.8375    0.0000 Br  0  0  0  0  0  0  0  0  0  0  0  0
   -5.8333   -1.4542    0.0000 C   0  0  0  0  0  0  0  0  0  0  0  0
   -5.8333   -0.6000    0.0000 C   0  0  0  0  0  0  0  0  0  0  0  0
  2  6  1  0  0  0  0
  3  2  2  0  0  0  0
  4  1  1  0  0  0  0
  5  4  1  0  0  0  0
  6  1  2  0  0  0  0
  7  1  1  0  0  0  0
  8  6  1  0  0  0  0
  9  7  2  0  0  0  0
 10  9  1  0  0  0  0
 11  3  1  0  0  0  0
 12  4  2  0  0  0  0
 13 11  2  0  0  0  0
 14 11  1  0  0  0  0
 15 19  1  0  0  0  0
 16  9  1  0  0  0  0
 17 10  1  0  0  0  0
 18 13  1  0  0  0  0
 19 14  2  0  0  0  0
 20 15  1  0  0  0  0
 21 16  1  0  0  0  0
 22 17  1  0  0  0  0
  5  3  1  0  0  0  0
  8 10  2  0  0  0  0
 15 18  2  0  0  0  0
M  END
> <#>
960

> <PLATE>
LAT012

> <ROW>
H

> <COL>
11

> <COORD>
H11

> <LATID>
LAT012H11

> <Supplier>
Chembridge

> <Suplier_CAT#>
5739883

> <Name>
Novel

> <Sec_Name>
234_G10

> <Concentration_(mM)>
2.5

> <IC50_(µM)>
39

> <Yeast_Active?>
-

> <Pubchem_CID>
1105605

$$$$
