
  -ISIS-  08130814242D

 20 21  0  0  0  0  0  0  0  0999 V2000
    2.9375   -1.5542    0.0000 C   0  0  0  0  0  0  0  0  0  0  0  0
    4.2375   -1.5542    0.0000 N   0  0  0  0  0  0  0  0  0  0  0  0
    3.5875   -1.9292    0.0000 N   0  0  0  0  0  0  0  0  0  0  0  0
    1.6375   -1.5500    0.0000 O   0  0  0  0  0  0  0  0  0  0  0  0
    2.9375   -0.8042    0.0000 O   0  0  0  0  0  0  0  0  0  0  0  0
    0.9875   -1.9292    0.0000 C   0  0  0  0  0  0  0  0  0  0  0  0
    6.8375   -0.8042    0.0000 N   0  0  0  0  0  0  0  0  0  0  0  0
    2.2875   -1.9292    0.0000 C   0  0  0  0  0  0  0  0  0  0  0  0
    0.3375   -1.5500    0.0000 C   0  0  0  0  0  0  0  0  0  0  0  0
    4.8875   -1.9292    0.0000 C   0  0  0  0  0  0  0  0  0  0  0  0
    5.5375   -1.5542    0.0000 C   0  0  0  0  0  0  0  0  0  0  0  0
    6.8375   -1.5542    0.0000 C   0  0  0  0  0  0  0  0  0  0  0  0
    6.1875   -0.4292    0.0000 C   0  0  0  0  0  0  0  0  0  0  0  0
    0.9875   -2.6792    0.0000 C   0  0  0  0  0  0  0  0  0  0  0  0
    0.3375   -0.8000    0.0000 C   0  0  0  0  0  0  0  0  0  0  0  0
   -0.3000   -1.9292    0.0000 C   0  0  0  0  0  0  0  0  0  0  0  0
    6.1875   -1.9292    0.0000 C   0  0  0  0  0  0  0  0  0  0  0  0
    5.5375   -0.8042    0.0000 C   0  0  0  0  0  0  0  0  0  0  0  0
    0.3375   -3.0542    0.0000 C   0  0  0  0  0  0  0  0  0  0  0  0
   -0.3000   -2.6792    0.0000 C   0  0  0  0  0  0  0  0  0  0  0  0
  2  3  1  0  0  0  0
  3  1  1  0  0  0  0
  4  8  1  0  0  0  0
  5  1  2  0  0  0  0
  6  4  1  0  0  0  0
  7 13  2  0  0  0  0
  8  1  1  0  0  0  0
  9  6  1  0  0  0  0
 10  2  2  0  0  0  0
 11 10  1  0  0  0  0
 12 17  2  0  0  0  0
 13 18  1  0  0  0  0
 14  6  2  0  0  0  0
 15  9  1  0  0  0  0
 16  9  2  0  0  0  0
 17 11  1  0  0  0  0
 18 11  2  0  0  0  0
 19 14  1  0  0  0  0
 20 19  2  0  0  0  0
 20 16  1  0  0  0  0
  7 12  1  0  0  0  0
M  END
> <#>
586

> <PLATE>
LAT008

> <ROW>
B

> <COL>
5

> <COORD>
B05

> <LATID>
LAT008B05

> <Supplier>
Chembridge

> <Suplier_CAT#>
5468806

> <Name>
Novel

> <Sec_Name>
132_F07

> <Concentration_(mM)>
2.5

> <IC50_(µM)>
9.5

> <Yeast_Active?>
-

> <Pubchem_CID>
772962

> <Comment>
SS06

$$$$
