
  -ISIS-  08130814242D

 21 23  0  0  0  0  0  0  0  0999 V2000
   -2.6625    1.0500    0.0000 C   0  0  0  0  0  0  0  0  0  0  0  0
   -2.9833    1.5125    0.0000 N   0  0  0  0  0  0  0  0  0  0  0  0
   -2.9833    0.6125    0.0000 N   0  0  0  0  0  0  0  0  0  0  0  0
   -3.5000    1.3333    0.0000 C   0  0  0  0  0  0  0  0  0  0  0  0
   -3.5000    0.7708    0.0000 C   0  0  0  0  0  0  0  0  0  0  0  0
   -2.1000    1.0500    0.0000 S   0  0  0  0  0  0  0  0  0  0  0  0
    0.6792    0.0958    0.0000 C   0  0  0  0  0  0  0  0  0  0  0  0
   -0.4458    0.0958    0.0000 C   0  0  0  0  0  0  0  0  0  0  0  0
   -0.1625   -0.3875    0.0000 C   0  0  0  0  0  0  0  0  0  0  0  0
    0.4000   -0.3875    0.0000 C   0  0  0  0  0  0  0  0  0  0  0  0
   -0.1625    0.5708    0.0000 C   0  0  0  0  0  0  0  0  0  0  0  0
    0.4000    0.5708    0.0000 C   0  0  0  0  0  0  0  0  0  0  0  0
    1.2375    0.0958    0.0000 O   0  0  0  0  0  0  0  0  0  0  0  0
   -0.9833    0.0958    0.0000 O   0  0  0  0  0  0  0  0  0  0  0  0
   -3.9833    1.6125    0.0000 C   0  0  0  0  0  0  0  0  0  0  0  0
   -3.9833    0.4958    0.0000 C   0  0  0  0  0  0  0  0  0  0  0  0
   -1.8208    0.5708    0.0000 C   0  0  0  0  0  0  0  0  0  0  0  0
   -1.2625    0.5708    0.0000 C   0  0  0  0  0  0  0  0  0  0  0  0
    1.5167   -0.3875    0.0000 C   0  0  0  0  0  0  0  0  0  0  0  0
   -4.4708    1.3500    0.0000 C   0  0  0  0  0  0  0  0  0  0  0  0
   -4.4708    0.7708    0.0000 C   0  0  0  0  0  0  0  0  0  0  0  0
  2  1  2  0  0  0  0
  3  1  1  0  0  0  0
  4  2  1  0  0  0  0
  5  3  1  0  0  0  0
  6  1  1  0  0  0  0
  7 12  2  0  0  0  0
  8 14  1  0  0  0  0
  9  8  1  0  0  0  0
 10  9  2  0  0  0  0
 11  8  2  0  0  0  0
 12 11  1  0  0  0  0
 13  7  1  0  0  0  0
 14 18  1  0  0  0  0
 15  4  1  0  0  0  0
 16  5  1  0  0  0  0
 17  6  1  0  0  0  0
 18 17  1  0  0  0  0
 19 13  1  0  0  0  0
 20 15  2  0  0  0  0
 21 16  2  0  0  0  0
  5  4  2  0  0  0  0
 21 20  1  0  0  0  0
  7 10  1  0  0  0  0
M  END
> <#>
596

> <PLATE>
LAT008

> <ROW>
D

> <COL>
6

> <COORD>
D06

> <LATID>
LAT008D06

> <Supplier>
Chembridge

> <Suplier_CAT#>
5481905

> <Name>
Novel

> <Sec_Name>
143_F04

> <Concentration_(mM)>
2.5

> <IC50_(µM)>
100

> <Yeast_Active?>
-

> <Pubchem_CID>
NULL

$$$$
