
  -ISIS-  08130814242D

 25 27  0  0  0  0  0  0  0  0999 V2000
   -3.4208    1.5125    0.0000 C   0  0  3  0  0  0  0  0  0  0  0  0
   -2.8208    1.1500    0.0000 C   0  0  0  0  0  0  0  0  0  0  0  0
   -2.2000    0.7958    0.0000 C   0  0  0  0  0  0  0  0  0  0  0  0
   -1.0000    0.7958    0.0000 N   0  0  3  0  0  0  0  0  0  0  0  0
   -3.9458    2.0708    0.0000 C   0  0  0  0  0  0  0  0  0  0  0  0
   -3.9708    1.0500    0.0000 C   0  0  0  0  0  0  0  0  0  0  0  0
   -0.2625    0.3958    0.0000 C   0  0  3  0  0  0  0  0  0  0  0  0
   -3.0625    2.1125    0.0000 O   0  0  0  0  0  0  0  0  0  0  0  0
   -1.6000    0.4333    0.0000 C   0  0  0  0  0  0  0  0  0  0  0  0
   -1.0625    1.3500    0.0000 C   0  0  0  0  0  0  0  0  0  0  0  0
   -3.9458    2.7708    0.0000 C   0  0  0  0  0  0  0  0  0  0  0  0
   -4.5708    1.3958    0.0000 C   0  0  0  0  0  0  0  0  0  0  0  0
   -4.5500    1.7208    0.0000 C   0  0  0  0  0  0  0  0  0  0  0  0
   -3.9708    0.3500    0.0000 C   0  0  0  0  0  0  0  0  0  0  0  0
    0.3375    0.7458    0.0000 C   0  0  0  0  0  0  0  0  0  0  0  0
   -0.2625   -0.3042    0.0000 C   0  0  0  0  0  0  0  0  0  0  0  0
   -4.5500    3.1208    0.0000 C   0  0  0  0  0  0  0  0  0  0  0  0
   -5.1583    2.0708    0.0000 C   0  0  0  0  0  0  0  0  0  0  0  0
   -5.1708    1.0500    0.0000 C   0  0  0  0  0  0  0  0  0  0  0  0
   -4.5708    0.0000    0.0000 C   0  0  0  0  0  0  0  0  0  0  0  0
    0.3375   -0.6542    0.0000 C   0  0  0  0  0  0  0  0  0  0  0  0
    0.9375    0.3958    0.0000 C   0  0  0  0  0  0  0  0  0  0  0  0
    0.9375   -0.3042    0.0000 C   0  0  0  0  0  0  0  0  0  0  0  0
   -5.1708    0.3500    0.0000 C   0  0  0  0  0  0  0  0  0  0  0  0
   -5.1583    2.7708    0.0000 C   0  0  0  0  0  0  0  0  0  0  0  0
  2  1  1  0  0  0  0
  3  2  3  0  0  0  0
  4  9  1  0  0  0  0
  5  1  1  0  0  0  0
  6  1  1  0  0  0  0
  7  4  1  0  0  0  0
  8  1  1  0  0  0  0
  9  3  1  0  0  0  0
 10  4  1  0  0  0  0
 11  5  2  0  0  0  0
 12  6  1  0  0  0  0
 13  5  1  0  0  0  0
 14  6  2  0  0  0  0
 15  7  1  0  0  0  0
 16  7  1  0  0  0  0
 17 11  1  0  0  0  0
 18 13  2  0  0  0  0
 19 12  2  0  0  0  0
 20 14  1  0  0  0  0
 21 16  1  0  0  0  0
 22 15  1  0  0  0  0
 23 21  1  0  0  0  0
 24 20  2  0  0  0  0
 25 18  1  0  0  0  0
 19 24  1  0  0  0  0
 25 17  2  0  0  0  0
 22 23  1  0  0  0  0
M  END
> <#>
1005

> <PLATE>
LAT013

> <ROW>
E

> <COL>
7

> <COORD>
E07

> <LATID>
LAT013E07

> <Supplier>
Chembridge

> <Suplier_CAT#>
5104152

> <Name>
Novel

> <Concentration_(mM)>
2.5

> <IC50_(µM)>
inactive

> <Yeast_Active?>
-

> <Pubchem_CID>
1380734

$$$$
