
  -ISIS-  08130814242D

 24 25  0  0  0  0  0  0  0  0999 V2000
   -0.3958   -0.3667    0.0000 C   0  0  0  0  0  0  0  0  0  0  0  0
    0.3292    0.0500    0.0000 C   0  0  3  0  0  0  0  0  0  0  0  0
   -1.1208    0.0500    0.0000 N   0  0  0  0  0  0  0  0  0  0  0  0
   -1.8500   -0.3667    0.0000 N   0  0  0  0  0  0  0  0  0  0  0  0
   -0.4000   -1.2167    0.0000 O   0  0  0  0  0  0  0  0  0  0  0  0
    1.0542   -0.3667    0.0000 C   0  0  0  0  0  0  0  0  0  0  0  0
    0.3292    0.9125    0.0000 C   0  0  0  0  0  0  0  0  0  0  0  0
   -2.5458    0.0625    0.0000 C   0  0  0  0  0  0  0  0  0  0  0  0
    1.1500    0.5333    0.0000 O   0  0  0  0  0  0  0  0  0  0  0  0
   -3.2625   -0.3667    0.0000 C   0  0  0  0  0  0  0  0  0  0  0  0
   -4.0000    0.0458    0.0000 C   0  0  3  0  0  0  0  0  0  0  0  0
    1.0542   -1.2042    0.0000 C   0  0  0  0  0  0  0  0  0  0  0  0
    1.0667    1.3333    0.0000 C   0  0  0  0  0  0  0  0  0  0  0  0
    1.8000    0.0500    0.0000 C   0  0  0  0  0  0  0  0  0  0  0  0
   -0.4000    1.3333    0.0000 C   0  0  0  0  0  0  0  0  0  0  0  0
   -2.5333    0.9125    0.0000 C   0  0  0  0  0  0  0  0  0  0  0  0
   -4.0208    0.8958    0.0000 C   0  0  0  0  0  0  0  0  0  0  0  0
   -4.7333   -0.3875    0.0000 C   0  0  0  0  0  0  0  0  0  0  0  0
    1.7792   -1.6292    0.0000 C   0  0  0  0  0  0  0  0  0  0  0  0
    1.0542    2.1833    0.0000 C   0  0  0  0  0  0  0  0  0  0  0  0
    2.5167   -0.3542    0.0000 C   0  0  0  0  0  0  0  0  0  0  0  0
   -0.4000    2.1958    0.0000 C   0  0  0  0  0  0  0  0  0  0  0  0
    0.3375    2.6000    0.0000 C   0  0  0  0  0  0  0  0  0  0  0  0
    2.5167   -1.2167    0.0000 C   0  0  0  0  0  0  0  0  0  0  0  0
  2  1  1  0  0  0  0
  3  1  1  0  0  0  0
  4  3  1  0  0  0  0
  5  1  2  0  0  0  0
  6  2  1  0  0  0  0
  7  2  1  0  0  0  0
  8  4  2  0  0  0  0
  9  2  1  0  0  0  0
 10  8  1  0  0  0  0
 11 10  1  0  0  0  0
 12  6  1  0  0  0  0
 13  7  2  0  0  0  0
 14  6  2  0  0  0  0
 15  7  1  0  0  0  0
 16  8  1  0  0  0  0
 17 11  1  0  0  0  0
 18 11  1  0  0  0  0
 19 12  2  0  0  0  0
 20 13  1  0  0  0  0
 21 14  1  0  0  0  0
 22 15  2  0  0  0  0
 23 22  1  0  0  0  0
 24 21  2  0  0  0  0
 23 20  2  0  0  0  0
 24 19  1  0  0  0  0
M  END
> <#>
994

> <PLATE>
LAT013

> <ROW>
B

> <COL>
6

> <COORD>
B06

> <LATID>
LAT013B06

> <Supplier>
Chembridge

> <Suplier_CAT#>
5303274

> <Name>
Novel

> <Concentration_(mM)>
2.5

> <IC50_(µM)>
inactive

> <Yeast_Active?>
-

> <Pubchem_CID>
2839894

$$$$
