
  -ISIS-  08130814242D

 26 29  0  0  0  0  0  0  0  0999 V2000
    5.0152   -3.3208    0.0000 C   0  0  0  0  0  0  0  0  0  0  0  0
    5.0141   -4.1482    0.0000 C   0  0  0  0  0  0  0  0  0  0  0  0
    5.7289   -4.5610    0.0000 C   0  0  0  0  0  0  0  0  0  0  0  0
    6.4413   -4.1456    0.0000 C   0  0  0  0  0  0  0  0  0  0  0  0
    7.1543   -4.5586    0.0000 C   0  0  0  0  0  0  0  0  0  0  0  0
    7.8729   -4.1477    0.0000 C   0  0  0  0  0  0  0  0  0  0  0  0
    7.8741   -3.3192    0.0000 C   0  0  0  0  0  0  0  0  0  0  0  0
    5.7271   -2.9080    0.0000 C   0  0  0  0  0  0  0  0  0  0  0  0
    6.4455   -3.3199    0.0000 C   0  0  0  0  0  0  0  0  0  0  0  0
    7.1575   -2.9060    0.0000 N   0  0  3  0  0  0  0  0  0  0  0  0
    7.1573   -2.0785    0.0000 C   0  0  3  0  0  0  0  0  0  0  0  0
    6.4389   -1.6665    0.0000 C   0  0  0  0  0  0  0  0  0  0  0  0
    5.7206   -2.0822    0.0000 O   0  0  0  0  0  0  0  0  0  0  0  0
    4.3007   -2.9085    0.0000 N   0  0  3  0  0  0  0  0  0  0  0  0
    4.2986   -2.0781    0.0000 C   0  0  0  0  0  0  0  0  0  0  0  0
    3.5882   -1.6658    0.0000 C   0  0  0  0  0  0  0  0  0  0  0  0
    2.8714   -2.0750    0.0000 N   0  0  3  0  0  0  0  0  0  0  0  0
    2.8696   -2.9010    0.0000 C   0  0  0  0  0  0  0  0  0  0  0  0
    3.5846   -3.3178    0.0000 C   0  0  0  0  0  0  0  0  0  0  0  0
    2.1584   -1.6600    0.0000 C   0  0  0  0  0  0  0  0  0  0  0  0
    4.2993   -4.5601    0.0000 F   0  0  0  0  0  0  0  0  0  0  0  0
    7.1519   -5.3836    0.0000 O   0  0  0  0  0  0  0  0  0  0  0  0
    8.5862   -4.5622    0.0000 C   0  0  0  0  0  0  0  0  0  0  0  0
    7.8711   -1.6648    0.0000 C   0  0  0  0  0  0  0  0  0  0  0  0
    8.5857   -5.3818    0.0000 O   0  0  0  0  0  0  0  0  0  0  0  0
    9.3037   -4.1463    0.0000 O   0  0  0  0  0  0  0  0  0  0  0  0
 10 11  1  0  0  0  0
 11 12  1  0  0  0  0
 12 13  1  0  0  0  0
  4  5  1  0  0  0  0
  1 14  1  0  0  0  0
 14 15  1  0  0  0  0
  5  6  1  0  0  0  0
  6  7  2  0  0  0  0
  7 10  1  0  0  0  0
  8  9  2  0  0  0  0
  8  1  1  0  0  0  0
 14 19  1  0  0  0  0
 15 16  1  0  0  0  0
 16 17  1  0  0  0  0
 17 18  1  0  0  0  0
 18 19  1  0  0  0  0
  9  4  1  0  0  0  0
 17 20  1  0  0  0  0
  1  2  2  0  0  0  0
  2 21  1  0  0  0  0
  5 22  2  0  0  0  0
  2  3  1  0  0  0  0
  6 23  1  0  0  0  0
  3  4  2  0  0  0  0
 11 24  1  0  0  0  0
  8 13  1  0  0  0  0
  9 10  1  0  0  0  0
 23 25  1  0  0  0  0
 23 26  2  0  0  0  0
M  END
> <#>
261

> <PLATE>
LAT004

> <ROW>
E

> <COL>
4

> <COORD>
E04

> <LATID>
LAT004E04

> <Supplier>
Sigma

> <Suplier_CAT#>
O 8757

> <Name>
Ofloxacin

> <Concentration_(mM)>
2.5

> <IC50_(µM)>
>100

> <Yeast_Active?>
-

> <Pubchem_CID>
4583

> <Description>
Fluorinated quinolone antibacterial; interferes with DNA synthesis

$$$$
