
  -ISIS-  08130814242D

 20 21  0  0  0  0  0  0  0  0999 V2000
   -2.2823    1.3260    0.0000 C   0  0  0  0  0  0  0  0  0  0  0  0
   -3.3648    1.9510    0.0000 C   0  0  0  0  0  0  0  0  0  0  0  0
   -4.4474    1.3260    0.0000 C   0  0  0  0  0  0  0  0  0  0  0  0
   -5.5299    1.9510    0.0000 C   0  0  0  0  0  0  0  0  0  0  0  0
   -5.5299    3.2010    0.0000 C   0  0  0  0  0  0  0  0  0  0  0  0
   -4.4474    3.8260    0.0000 C   0  0  0  0  0  0  0  0  0  0  0  0
   -3.3648    3.2010    0.0000 C   0  0  0  0  0  0  0  0  0  0  0  0
   -2.2823    0.0760    0.0000 O   0  0  0  0  0  0  0  0  0  0  0  0
   -1.1998    1.9510    0.0000 N   0  0  0  0  0  0  0  0  0  0  0  0
   -0.1172    1.3260    0.0000 C   0  0  0  0  0  0  0  0  0  0  0  0
    3.1304    1.9510    0.0000 C   0  0  0  0  0  0  0  0  0  0  0  0
    2.0478    1.3260    0.0000 C   0  0  0  0  0  0  0  0  0  0  0  0
    0.9653    1.9510    0.0000 C   0  0  0  0  0  0  0  0  0  0  0  0
    0.9653    3.2010    0.0000 C   0  0  0  0  0  0  0  0  0  0  0  0
    2.0478    3.8260    0.0000 C   0  0  0  0  0  0  0  0  0  0  0  0
    3.1304    3.2010    0.0000 N   0  0  0  0  0  0  0  0  0  0  0  0
   -6.6126    3.8260    0.0000 N   0  3  0  0  0  0  0  0  0  0  0  0
   -6.6126    5.0823    0.0000 O   0  0  0  0  0  0  0  0  0  0  0  0
   -7.6967    3.2010    0.0000 O   0  5  0  0  0  0  0  0  0  0  0  0
   -6.6126    1.3260    0.0000 C   0  0  0  0  0  0  0  0  0  0  0  0
  1  2  1  0  0  0  0
  2  3  1  0  0  0  0
  3  4  2  0  0  0  0
  4  5  1  0  0  0  0
  5  6  2  0  0  0  0
  6  7  1  0  0  0  0
  2  7  2  0  0  0  0
  1  8  2  0  0  0  0
  1  9  1  0  0  0  0
 11 12  1  0  0  0  0
 12 13  2  0  0  0  0
 13 14  1  0  0  0  0
 14 15  2  0  0  0  0
 15 16  1  0  0  0  0
 11 16  2  0  0  0  0
 10 13  1  0  0  0  0
  9 10  1  0  0  0  0
 17 18  2  0  0  0  0
 17 19  1  0  0  0  0
  5 17  1  0  0  0  0
  4 20  1  0  0  0  0
M  CHG  2  17   1  19  -1
M  END
> <#>
1073

> <PLATE>
LAT014

> <ROW>
A

> <COL>
6

> <COORD>
A06

> <LATID>
LAT014A06

> <Supplier>
Chembridge

> <Suplier_CAT#>
5569986

> <Name>
Novel

> <Concentration_(mM)>
2.5

> <IC50_(µM)>
>100

> <Yeast_Active?>
-

> <Pubchem_CID>
870230

$$$$
