
  -ISIS-  08130814242D

 21 23  0  0  0  0  0  0  0  0999 V2000
   -1.5708    0.1625    0.0000 C   0  0  0  0  0  0  0  0  0  0  0  0
    1.6167    0.1833    0.0000 C   0  0  0  0  0  0  0  0  0  0  0  0
   -0.7708    0.6208    0.0000 N   0  0  0  0  0  0  0  0  0  0  0  0
    0.8500    0.6208    0.0000 C   0  0  0  0  0  0  0  0  0  0  0  0
   -2.3708    0.6208    0.0000 N   0  0  0  0  0  0  0  0  0  0  0  0
    1.6167   -0.7292    0.0000 C   0  0  0  0  0  0  0  0  0  0  0  0
    2.5000    0.5208    0.0000 O   0  0  0  0  0  0  0  0  0  0  0  0
    2.5042   -1.0000    0.0000 O   0  0  0  0  0  0  0  0  0  0  0  0
    0.0167    0.1625    0.0000 C   0  0  0  0  0  0  0  0  0  0  0  0
    3.0167   -0.2167    0.0000 C   0  0  0  0  0  0  0  0  0  0  0  0
   -1.5708   -0.7667    0.0000 O   0  0  0  0  0  0  0  0  0  0  0  0
    0.8167   -1.2042    0.0000 C   0  0  0  0  0  0  0  0  0  0  0  0
   -3.1708    0.1458    0.0000 C   0  0  0  0  0  0  0  0  0  0  0  0
    0.0167   -0.7500    0.0000 C   0  0  0  0  0  0  0  0  0  0  0  0
   -4.7708   -0.8000    0.0000 C   0  0  0  0  0  0  0  0  0  0  0  0
   -3.9708    0.6000    0.0000 C   0  0  0  0  0  0  0  0  0  0  0  0
   -3.1708   -0.8000    0.0000 C   0  0  0  0  0  0  0  0  0  0  0  0
   -3.9708   -1.2500    0.0000 C   0  0  0  0  0  0  0  0  0  0  0  0
   -4.7708    0.1458    0.0000 C   0  0  0  0  0  0  0  0  0  0  0  0
   -5.5708   -1.2500    0.0000 O   0  0  0  0  0  0  0  0  0  0  0  0
   -5.5708   -2.2000    0.0000 C   0  0  0  0  0  0  0  0  0  0  0  0
  2  4  2  0  0  0  0
  3  1  1  0  0  0  0
  4  9  1  0  0  0  0
  5  1  1  0  0  0  0
  6 12  2  0  0  0  0
  7  2  1  0  0  0  0
  8  6  1  0  0  0  0
  9  3  1  0  0  0  0
 10  7  1  0  0  0  0
 11  1  2  0  0  0  0
 12 14  1  0  0  0  0
 13  5  1  0  0  0  0
 14  9  2  0  0  0  0
 15 18  1  0  0  0  0
 16 13  2  0  0  0  0
 17 13  1  0  0  0  0
 18 17  2  0  0  0  0
 19 16  1  0  0  0  0
 20 15  1  0  0  0  0
 21 20  1  0  0  0  0
 15 19  2  0  0  0  0
  2  6  1  0  0  0  0
 10  8  1  0  0  0  0
M  END
> <#>
877

> <PLATE>
LAT011

> <ROW>
E

> <COL>
11

> <COORD>
E11

> <LATID>
LAT011E11

> <Supplier>
Chembridge

> <Suplier_CAT#>
5672303

> <Name>
Novel

> <Sec_Name>
211_A11

> <Concentration_(mM)>
2.5

> <IC50_(µM)>
48

> <Yeast_Active?>
-

> <Pubchem_CID>
686197

$$$$
