
  -ISIS-  08130814242D

 23 23  0  0  0  0  0  0  0  0999 V2000
   -3.7167   -1.1228    0.0000 C   0  0  0  0  0  0  0  0  0  0  0  0
   -3.0917   -0.0402    0.0000 C   0  0  2  0  0  0  0  0  0  0  0  0
   -3.7167    1.0423    0.0000 C   0  0  2  0  0  0  0  0  0  0  0  0
   -3.0917    2.1248    0.0000 C   0  0  1  0  0  0  0  0  0  0  0  0
   -1.8417    2.1248    0.0000 C   0  0  2  0  0  0  0  0  0  0  0  0
   -1.2167    1.0423    0.0000 C   0  0  2  0  0  0  0  0  0  0  0  0
   -1.8417   -0.0402    0.0000 O   0  0  0  0  0  0  0  0  0  0  0  0
    0.0333    1.0423    0.0000 O   0  0  0  0  0  0  0  0  0  0  0  0
    0.6583   -0.0402    0.0000 C   0  0  1  0  0  0  0  0  0  0  0  0
    1.9083   -0.0402    0.0000 C   0  0  1  0  0  0  0  0  0  0  0  0
    2.5333    1.0423    0.0000 C   0  0  1  0  0  0  0  0  0  0  0  0
    3.7833    1.0423    0.0000 C   0  0  0  0  0  0  0  0  0  0  0  0
    4.4083   -0.0402    0.0000 O   0  0  0  0  0  0  0  0  0  0  0  0
    1.9083    2.1248    0.0000 O   0  0  0  0  0  0  0  0  0  0  0  0
    2.5333   -1.1228    0.0000 O   0  0  0  0  0  0  0  0  0  0  0  0
    0.0333   -1.1228    0.0000 C   0  0  0  0  0  0  0  0  0  0  0  0
   -1.2167   -1.1228    0.0000 O   0  0  0  0  0  0  0  0  0  0  0  0
    0.6583   -2.2053    0.0000 C   0  0  0  0  0  0  0  0  0  0  0  0
    1.9083   -2.2053    0.0000 O   0  0  0  0  0  0  0  0  0  0  0  0
   -1.2167    3.2074    0.0000 O   0  0  0  0  0  0  0  0  0  0  0  0
   -3.7167    3.2074    0.0000 O   0  0  0  0  0  0  0  0  0  0  0  0
   -4.9667    1.0423    0.0000 O   0  0  0  0  0  0  0  0  0  0  0  0
   -4.9667   -1.1228    0.0000 O   0  0  0  0  0  0  0  0  0  0  0  0
  2  1  1  6  0  0  0
  2  3  1  0  0  0  0
  3  4  1  0  0  0  0
  4  5  1  0  0  0  0
  5  6  1  0  0  0  0
  6  7  1  0  0  0  0
  2  7  1  0  0  0  0
  6  8  1  1  0  0  0
  9  8  1  1  0  0  0
  9 10  1  0  0  0  0
 10 11  1  0  0  0  0
 11 12  1  0  0  0  0
 12 13  1  0  0  0  0
 11 14  1  6  0  0  0
 10 15  1  1  0  0  0
  9 16  1  0  0  0  0
 16 17  2  0  0  0  0
 16 18  1  0  0  0  0
 18 19  1  0  0  0  0
  5 20  1  1  0  0  0
  4 21  1  6  0  0  0
  3 22  1  1  0  0  0
  1 23  1  0  0  0  0
M  END
> <#>
414

> <PLATE>
LAT006

> <ROW>
F

> <COL>
3

> <COORD>
F03

> <LATID>
LAT006F03

> <Supplier>
Nutirional Biochemicals

> <Suplier_CAT#>
Turanose

> <Name>
D(+)-Turanose

> <Concentration_(mM)>
2.5

> <IC50_(µM)>
inactive

> <Yeast_Active?>
-

> <Pubchem_CID>
162104

$$$$
