
  -ISIS-  08130814242D

 31 34  0  0  0  0  0  0  0  0999 V2000
   -0.5625    1.9333    0.0000 C   0  0  0  0  0  0  0  0  0  0  0  0
    0.3167    1.9583    0.0000 C   0  0  0  0  0  0  0  0  0  0  0  0
   -1.0708    1.2125    0.0000 N   0  0  0  0  0  0  0  0  0  0  0  0
   -1.0708    2.6458    0.0000 N   0  0  0  0  0  0  0  0  0  0  0  0
    0.7667    2.7083    0.0000 C   0  0  0  0  0  0  0  0  0  0  0  0
    0.7667    1.1708    0.0000 C   0  0  0  0  0  0  0  0  0  0  0  0
   -0.4833   -1.1667    0.0000 C   0  0  0  0  0  0  0  0  0  0  0  0
   -1.9083    1.5000    0.0000 C   0  0  0  0  0  0  0  0  0  0  0  0
    0.4000   -1.1375    0.0000 C   0  0  0  0  0  0  0  0  0  0  0  0
   -0.9500   -0.4042    0.0000 C   0  0  0  0  0  0  0  0  0  0  0  0
   -1.9083    2.3833    0.0000 C   0  0  0  0  0  0  0  0  0  0  0  0
    0.3542    0.4000    0.0000 C   0  0  0  0  0  0  0  0  0  0  0  0
    0.8167   -0.3542    0.0000 C   0  0  0  0  0  0  0  0  0  0  0  0
   -0.5333    0.3833    0.0000 C   0  0  0  0  0  0  0  0  0  0  0  0
    0.3167    3.4708    0.0000 O   0  0  0  0  0  0  0  0  0  0  0  0
    1.6375    2.7083    0.0000 C   0  0  0  0  0  0  0  0  0  0  0  0
   -0.8833   -1.9500    0.0000 O   0  0  0  0  0  0  0  0  0  0  0  0
   -1.8333   -0.4292    0.0000 O   0  0  0  0  0  0  0  0  0  0  0  0
    0.8542   -1.8875    0.0000 O   0  0  0  0  0  0  0  0  0  0  0  0
   -2.6625    1.0458    0.0000 C   0  0  0  0  0  0  0  0  0  0  0  0
   -2.6625    2.8208    0.0000 C   0  0  0  0  0  0  0  0  0  0  0  0
    2.0875    3.4708    0.0000 C   0  0  0  0  0  0  0  0  0  0  0  0
    2.0875    1.9333    0.0000 C   0  0  0  0  0  0  0  0  0  0  0  0
   -0.4125   -2.6792    0.0000 C   0  0  0  0  0  0  0  0  0  0  0  0
   -2.2500   -1.2000    0.0000 C   0  0  0  0  0  0  0  0  0  0  0  0
    1.7292   -1.8667    0.0000 C   0  0  0  0  0  0  0  0  0  0  0  0
   -3.4333    1.5000    0.0000 C   0  0  0  0  0  0  0  0  0  0  0  0
   -3.4333    2.3833    0.0000 C   0  0  0  0  0  0  0  0  0  0  0  0
    2.9667    3.4708    0.0000 C   0  0  0  0  0  0  0  0  0  0  0  0
    2.9667    1.9333    0.0000 C   0  0  0  0  0  0  0  0  0  0  0  0
    3.4042    2.7083    0.0000 C   0  0  0  0  0  0  0  0  0  0  0  0
  2  1  1  0  0  0  0
  3  1  2  0  0  0  0
  4  1  1  0  0  0  0
  5  2  1  0  0  0  0
  6  2  2  0  0  0  0
  7 10  1  0  0  0  0
  8  3  1  0  0  0  0
  9 13  1  0  0  0  0
 10 14  2  0  0  0  0
 11  4  1  0  0  0  0
 12  6  1  0  0  0  0
 13 12  2  0  0  0  0
 14 12  1  0  0  0  0
 15  5  2  0  0  0  0
 16  5  1  0  0  0  0
 17  7  1  0  0  0  0
 18 10  1  0  0  0  0
 19  9  1  0  0  0  0
 20  8  2  0  0  0  0
 21 11  2  0  0  0  0
 22 16  2  0  0  0  0
 23 16  1  0  0  0  0
 24 17  1  0  0  0  0
 25 18  1  0  0  0  0
 26 19  1  0  0  0  0
 27 20  1  0  0  0  0
 28 21  1  0  0  0  0
 29 22  1  0  0  0  0
 30 23  2  0  0  0  0
 31 30  1  0  0  0  0
 11  8  1  0  0  0  0
 27 28  2  0  0  0  0
  7  9  2  0  0  0  0
 29 31  2  0  0  0  0
M  END
> <#>
900

> <PLATE>
LAT012

> <ROW>
D

> <COL>
4

> <COORD>
D04

> <LATID>
LAT012D04

> <Supplier>
Chembridge

> <Suplier_CAT#>
5675917

> <Name>
Novel

> <Sec_Name>
214_E02

> <Concentration_(mM)>
2.5

> <IC50_(µM)>
>100

> <Yeast_Active?>
-

> <Pubchem_CID>
NULL

$$$$
