
  -ISIS-  08130814242D

 25 27  0  0  0  0  0  0  0  0999 V2000
   -0.9625    0.7708    0.0000 C   0  0  0  0  0  0  0  0  0  0  0  0
   -1.9458    0.7708    0.0000 C   0  0  0  0  0  0  0  0  0  0  0  0
   -2.3833    1.6208    0.0000 N   0  0  0  0  0  0  0  0  0  0  0  0
    0.4375   -0.0792    0.0000 N   0  0  0  0  0  0  0  0  0  0  0  0
   -0.5125   -0.0542    0.0000 N   0  0  0  0  0  0  0  0  0  0  0  0
   -0.4708    1.5833    0.0000 O   0  0  0  0  0  0  0  0  0  0  0  0
    2.3042   -0.1500    0.0000 C   0  0  0  0  0  0  0  0  0  0  0  0
   -4.7708    0.8333    0.0000 N   0  0  0  0  0  0  0  0  0  0  0  0
   -2.4333   -0.0500    0.0000 O   0  0  0  0  0  0  0  0  0  0  0  0
    1.8292   -0.9375    0.0000 C   0  0  0  0  0  0  0  0  0  0  0  0
    0.8875   -0.9167    0.0000 C   0  0  0  0  0  0  0  0  0  0  0  0
    3.2500   -0.1542    0.0000 C   0  0  0  0  0  0  0  0  0  0  0  0
   -3.3333    1.6458    0.0000 C   0  0  0  0  0  0  0  0  0  0  0  0
   -3.8208    0.8333    0.0000 C   0  0  0  0  0  0  0  0  0  0  0  0
    3.2375   -1.7667    0.0000 C   0  0  0  0  0  0  0  0  0  0  0  0
   -5.2708    0.0458    0.0000 C   0  0  0  0  0  0  0  0  0  0  0  0
    2.3000   -1.7542    0.0000 C   0  0  0  0  0  0  0  0  0  0  0  0
    1.8292    0.6708    0.0000 C   0  0  0  0  0  0  0  0  0  0  0  0
    3.7292   -0.9542    0.0000 C   0  0  0  0  0  0  0  0  0  0  0  0
    3.7167    0.6500    0.0000 C   0  0  0  0  0  0  0  0  0  0  0  0
   -3.3833   -0.0042    0.0000 C   0  0  0  0  0  0  0  0  0  0  0  0
   -4.8125   -0.8042    0.0000 C   0  0  0  0  0  0  0  0  0  0  0  0
    2.3167    1.4958    0.0000 C   0  0  0  0  0  0  0  0  0  0  0  0
    3.2542    1.4833    0.0000 C   0  0  0  0  0  0  0  0  0  0  0  0
   -3.8625   -0.8042    0.0000 C   0  0  0  0  0  0  0  0  0  0  0  0
  2  1  1  0  0  0  0
  3  2  1  0  0  0  0
  4  5  1  0  0  0  0
  5  1  1  0  0  0  0
  6  1  2  0  0  0  0
  7 10  1  0  0  0  0
  8 14  2  0  0  0  0
  9  2  2  0  0  0  0
 10 11  1  0  0  0  0
 11  4  2  0  0  0  0
 12  7  2  0  0  0  0
 13  3  1  0  0  0  0
 14 13  1  0  0  0  0
 15 17  1  0  0  0  0
 16  8  1  0  0  0  0
 17 10  2  0  0  0  0
 18  7  1  0  0  0  0
 19 15  2  0  0  0  0
 20 12  1  0  0  0  0
 21 14  1  0  0  0  0
 22 25  1  0  0  0  0
 23 18  2  0  0  0  0
 24 23  1  0  0  0  0
 25 21  2  0  0  0  0
 12 19  1  0  0  0  0
 22 16  2  0  0  0  0
 20 24  2  0  0  0  0
M  END
> <#>
665

> <PLATE>
LAT009

> <ROW>
A

> <COL>
5

> <COORD>
A05

> <LATID>
LAT009A05

> <Supplier>
Chembridge

> <Suplier_CAT#>
5529655

> <Name>
Novel

> <Sec_Name>
152_C09

> <Concentration_(mM)>
2.5

> <IC50_(µM)>
32

> <Yeast_Active?>
-

> <Pubchem_CID>
2247657

$$$$
