
  -ISIS-  08130814242D

 31 34  0  0  0  0  0  0  0  0999 V2000
   -1.7125    0.1708    0.0000 N   0  0  3  0  0  0  0  0  0  0  0  0
   -1.1708   -0.1667    0.0000 C   0  0  0  0  0  0  0  0  0  0  0  0
   -1.7125    0.7958    0.0000 C   0  0  0  0  0  0  0  0  0  0  0  0
   -0.6125    0.1708    0.0000 C   0  0  3  0  0  0  0  0  0  0  0  0
   -0.6125    0.7958    0.0000 C   0  0  0  0  0  0  0  0  0  0  0  0
    3.8792   -2.3792    0.0000 N   0  3  0  0  0  0  0  0  0  0  0  0
   -2.3500   -0.1792    0.0000 C   0  0  0  0  0  0  0  0  0  0  0  0
    0.0375   -0.1792    0.0000 N   0  0  3  0  0  0  0  0  0  0  0  0
    1.3042   -0.9292    0.0000 N   0  0  3  0  0  0  0  0  0  0  0  0
   -3.0000    0.1833    0.0000 C   0  0  0  0  0  0  0  0  0  0  0  0
    3.2500   -2.0042    0.0000 C   0  0  0  0  0  0  0  0  0  0  0  0
   -1.1708   -0.9000    0.0000 O   0  0  0  0  0  0  0  0  0  0  0  0
    3.8792   -3.0792    0.0000 O   0  5  0  0  0  0  0  0  0  0  0  0
    1.9792   -1.2875    0.0000 C   0  0  0  0  0  0  0  0  0  0  0  0
   -2.3500    1.1625    0.0000 O   0  0  0  0  0  0  0  0  0  0  0  0
    4.5500   -2.0042    0.0000 O   0  0  0  0  0  0  0  0  0  0  0  0
    0.0375   -0.9292    0.0000 C   0  0  0  0  0  0  0  0  0  0  0  0
    0.6667    0.1708    0.0000 C   0  0  0  0  0  0  0  0  0  0  0  0
    0.6667   -1.2792    0.0000 C   0  0  0  0  0  0  0  0  0  0  0  0
    1.3042   -0.1792    0.0000 C   0  0  0  0  0  0  0  0  0  0  0  0
    3.2500   -1.2875    0.0000 C   0  0  0  0  0  0  0  0  0  0  0  0
    2.6500   -2.3542    0.0000 C   0  0  0  0  0  0  0  0  0  0  0  0
    2.6042   -0.9167    0.0000 C   0  0  0  0  0  0  0  0  0  0  0  0
    1.9792   -2.0042    0.0000 C   0  0  0  0  0  0  0  0  0  0  0  0
   -3.6333   -0.1792    0.0000 C   0  0  0  0  0  0  0  0  0  0  0  0
   -2.3500   -0.9292    0.0000 C   0  0  0  0  0  0  0  0  0  0  0  0
   -4.2708    0.2000    0.0000 O   0  0  0  0  0  0  0  0  0  0  0  0
   -3.0000   -1.2875    0.0000 C   0  0  0  0  0  0  0  0  0  0  0  0
   -3.6333   -0.9292    0.0000 C   0  0  0  0  0  0  0  0  0  0  0  0
   -4.8833   -0.1667    0.0000 C   0  0  0  0  0  0  0  0  0  0  0  0
   -5.5208    0.2000    0.0000 C   0  0  0  0  0  0  0  0  0  0  0  0
  2  1  1  0  0  0  0
  3  1  1  0  0  0  0
  4  2  1  0  0  0  0
  5  3  1  0  0  0  0
  6 11  1  0  0  0  0
  7  1  1  0  0  0  0
  8  4  1  0  0  0  0
  9 20  1  0  0  0  0
 10  7  1  0  0  0  0
 11 22  1  0  0  0  0
 12  2  2  0  0  0  0
 13  6  1  0  0  0  0
 14  9  1  0  0  0  0
 15  3  2  0  0  0  0
 16  6  2  0  0  0  0
 17  8  1  0  0  0  0
 18  8  1  0  0  0  0
 19 17  1  0  0  0  0
 20 18  1  0  0  0  0
 21 23  1  0  0  0  0
 22 24  2  0  0  0  0
 23 14  2  0  0  0  0
 24 14  1  0  0  0  0
 25 10  2  0  0  0  0
 26  7  2  0  0  0  0
 27 25  1  0  0  0  0
 28 26  1  0  0  0  0
 29 28  2  0  0  0  0
 30 27  1  0  0  0  0
 31 30  1  0  0  0  0
  4  5  1  0  0  0  0
 25 29  1  0  0  0  0
 19  9  1  0  0  0  0
 21 11  2  0  0  0  0
M  CHG  2   6   1  13  -1
M  END
> <#>
961

> <PLATE>
LAT013

> <ROW>
A

> <COL>
2

> <COORD>
A02

> <LATID>
LAT013A02

> <Supplier>
Chembridge

> <Suplier_CAT#>
5747130

> <Name>
Novel

> <Sec_Name>
238_E05

> <Concentration_(mM)>
2.5

> <IC50_(µM)>
68

> <Yeast_Active?>
-

> <Pubchem_CID>
NULL

$$$$
