
  -ISIS-  08130814242D

 18 20  0  0  0  0  0  0  0  0999 V2000
   -1.0000    0.8333    0.0000 C   0  0  0  0  0  0  0  0  0  0  0  0
   -0.4500   -0.3042    0.0000 N   0  0  0  0  0  0  0  0  0  0  0  0
   -2.2625    0.9708    0.0000 C   0  0  3  0  0  0  0  0  0  0  0  0
   -3.4708    1.6625    0.0000 C   0  0  3  0  0  0  0  0  0  0  0  0
    0.8042   -0.3875    0.0000 C   0  0  0  0  0  0  0  0  0  0  0  0
    1.3667   -1.5167    0.0000 C   0  0  0  0  0  0  0  0  0  0  0  0
   -2.5708    0.4500    0.0000 C   0  0  0  0  0  0  0  0  0  0  0  0
   -0.2333    1.8333    0.0000 O   0  0  0  0  0  0  0  0  0  0  0  0
   -3.6708    2.8458    0.0000 C   0  0  0  0  0  0  0  0  0  0  0  0
    2.6375   -1.6042    0.0000 C   0  0  0  0  0  0  0  0  0  0  0  0
   -3.7958    1.1208    0.0000 C   0  0  3  0  0  0  0  0  0  0  0  0
   -4.8958    1.1208    0.0000 C   0  0  0  0  0  0  0  0  0  0  0  0
    1.5292    0.6625    0.0000 C   0  0  0  0  0  0  0  0  0  0  0  0
    3.3542   -0.5542    0.0000 C   0  0  0  0  0  0  0  0  0  0  0  0
   -5.2708    0.5208    0.0000 C   0  0  0  0  0  0  0  0  0  0  0  0
    2.8000    0.5708    0.0000 C   0  0  0  0  0  0  0  0  0  0  0  0
    4.6167   -0.6500    0.0000 I   0  0  0  0  0  0  0  0  0  0  0  0
    0.7542   -2.4667    0.0000 C   0  0  0  0  0  0  0  0  0  0  0  0
  2  1  1  0  0  0  0
  3  1  1  0  0  0  0
  4  3  1  0  0  0  0
  5  2  1  0  0  0  0
  6  5  1  0  0  0  0
  7  3  1  0  0  0  0
  8  1  2  0  0  0  0
  9  4  1  0  0  0  0
 10  6  2  0  0  0  0
 11  7  1  0  0  0  0
 12  4  1  0  0  0  0
 13  5  2  0  0  0  0
 14 16  2  0  0  0  0
 15 11  1  0  0  0  0
 16 13  1  0  0  0  0
 17 14  1  0  0  0  0
 18  6  1  0  0  0  0
  9 11  1  0  0  0  0
 12 15  1  0  0  0  0
 10 14  1  0  0  0  0
M  END
> <#>
707

> <PLATE>
LAT009

> <ROW>
C

> <COL>
10

> <COORD>
C10

> <LATID>
LAT009C10

> <Supplier>
Chembridge

> <Suplier_CAT#>
5540847

> <Name>
Novel

> <Sec_Name>
158_A11

> <Concentration_(mM)>
2.5

> <IC50_(µM)>
56

> <Yeast_Active?>
-

> <Pubchem_CID>
616193

$$$$
