
  -ISIS-  08130814242D

 19 19  0  0  0  0  0  0  0  0999 V2000
    4.2986   -3.5375    0.0000 C   0  0  0  0  0  0  0  0  0  0  0  0
    4.2974   -4.3648    0.0000 C   0  0  0  0  0  0  0  0  0  0  0  0
    5.0122   -4.7777    0.0000 C   0  0  0  0  0  0  0  0  0  0  0  0
    5.7287   -4.3644    0.0000 C   0  0  0  0  0  0  0  0  0  0  0  0
    5.7258   -3.5338    0.0000 C   0  0  0  0  0  0  0  0  0  0  0  0
    5.0104   -3.1247    0.0000 C   0  0  0  0  0  0  0  0  0  0  0  0
    5.0042   -2.2958    0.0000 N   0  0  0  0  0  0  0  0  0  0  0  0
    5.7167   -1.8792    0.0000 C   0  0  0  0  0  0  0  0  0  0  0  0
    6.4292   -2.2917    0.0000 C   0  0  3  0  0  0  0  0  0  0  0  0
    6.4250   -3.1167    0.0000 C   0  0  0  0  0  0  0  0  0  0  0  0
    7.1417   -1.8750    0.0000 C   0  0  0  0  0  0  0  0  0  0  0  0
    5.7125   -1.0542    0.0000 O   0  0  0  0  0  0  0  0  0  0  0  0
    6.4375   -4.7750    0.0000 C   0  0  3  0  0  0  0  0  0  0  0  0
    7.0835   -5.1545    0.0000 F   0  0  0  0  0  0  0  0  0  0  0  0
    6.5686   -5.6204    0.0000 F   0  0  0  0  0  0  0  0  0  0  0  0
    7.2355   -4.4738    0.0000 F   0  0  0  0  0  0  0  0  0  0  0  0
    5.0042   -5.6000    0.0000 N   0  3  0  0  0  0  0  0  0  0  0  0
    4.2902   -6.0055    0.0000 O   0  5  0  0  0  0  0  0  0  0  0  0
    5.7145   -6.0194    0.0000 O   0  0  0  0  0  0  0  0  0  0  0  0
  4  5  1  0  0  0  0
  9 10  1  0  0  0  0
  2  3  1  0  0  0  0
  9 11  1  0  0  0  0
  5  6  2  0  0  0  0
  8 12  2  0  0  0  0
  6  1  1  0  0  0  0
  4 13  1  0  0  0  0
  1  2  2  0  0  0  0
  6  7  1  0  0  0  0
  3  4  2  0  0  0  0
 13 14  1  0  0  0  0
 13 15  1  0  0  0  0
 13 16  1  0  0  0  0
  7  8  1  0  0  0  0
  3 17  1  0  0  0  0
  8  9  1  0  0  0  0
 17 18  1  0  0  0  0
 17 19  2  0  0  0  0
M  CHG  2  17   1  18  -1
M  END
> <#>
232

> <PLATE>
LAT003

> <ROW>
H

> <COL>
10

> <COORD>
H10

> <LATID>
LAT003H10

> <Supplier>
Sigma

> <Suplier_CAT#>
F 9397

> <Name>
Flutamide

> <Concentration_(mM)>
2.5

> <IC50_(µM)>
23

> <Yeast_Active?>
-

> <Pubchem_CID>
3397

> <Description>
Non-steroidal anti-androgen

$$$$
