
  -ISIS-  08130814242D

 19 21  0  0  0  0  0  0  0  0999 V2000
   -2.2458    0.8333    0.0000 C   0  0  0  0  0  0  0  0  0  0  0  0
   -3.1208    1.2333    0.0000 N   0  0  0  0  0  0  0  0  0  0  0  0
   -2.3458   -0.1500    0.0000 N   0  0  3  0  0  0  0  0  0  0  0  0
   -3.3000   -0.3500    0.0000 C   0  0  0  0  0  0  0  0  0  0  0  0
   -3.7833    0.5125    0.0000 C   0  0  0  0  0  0  0  0  0  0  0  0
   -1.3833    1.3125    0.0000 C   0  0  0  0  0  0  0  0  0  0  0  0
   -0.5625    0.8333    0.0000 N   0  0  0  0  0  0  0  0  0  0  0  0
    0.3000    1.2958    0.0000 C   0  0  0  0  0  0  0  0  0  0  0  0
   -1.6208   -0.7875    0.0000 C   0  0  0  0  0  0  0  0  0  0  0  0
    1.1375    0.8125    0.0000 C   0  0  0  0  0  0  0  0  0  0  0  0
    1.9792    1.2708    0.0000 C   0  0  0  0  0  0  0  0  0  0  0  0
   -3.7833   -1.1875    0.0000 C   0  0  0  0  0  0  0  0  0  0  0  0
   -4.7458    0.5125    0.0000 C   0  0  0  0  0  0  0  0  0  0  0  0
    1.1792    2.7333    0.0000 C   0  0  0  0  0  0  0  0  0  0  0  0
    0.3167    2.2500    0.0000 C   0  0  0  0  0  0  0  0  0  0  0  0
    2.0000    2.2333    0.0000 C   0  0  0  0  0  0  0  0  0  0  0  0
    2.8375    0.7958    0.0000 C   0  0  0  0  0  0  0  0  0  0  0  0
   -4.7458   -1.1875    0.0000 C   0  0  0  0  0  0  0  0  0  0  0  0
   -5.2208   -0.3500    0.0000 C   0  0  0  0  0  0  0  0  0  0  0  0
  2  1  2  0  0  0  0
  3  1  1  0  0  0  0
  4  3  1  0  0  0  0
  5  2  1  0  0  0  0
  6  1  1  0  0  0  0
  7  6  1  0  0  0  0
  8  7  1  0  0  0  0
  9  3  1  0  0  0  0
 10  8  1  0  0  0  0
 11 10  2  0  0  0  0
 12  4  1  0  0  0  0
 13  5  1  0  0  0  0
 14 15  1  0  0  0  0
 15  8  2  0  0  0  0
 16 14  2  0  0  0  0
 17 11  1  0  0  0  0
 18 12  2  0  0  0  0
 19 13  2  0  0  0  0
  4  5  2  0  0  0  0
 18 19  1  0  0  0  0
 16 11  1  0  0  0  0
M  END
> <#>
802

> <PLATE>
LAT011

> <ROW>
B

> <COL>
2

> <COORD>
B02

> <LATID>
LAT011B02

> <Supplier>
Chembridge

> <Suplier_CAT#>
5656963

> <Name>
Novel

> <Sec_Name>
203_F03

> <Concentration_(mM)>
2.5

> <IC50_(µM)>
23

> <Yeast_Active?>
-

> <Pubchem_CID>
781034

$$$$
