
  -ISIS-  08130814242D

  5  4  0  0  0  0  0  0  0  0999 V2000
    6.6432   -3.2859    0.0000 Mo  0  0  0  0  0  0  0  0  0  0  0  0
    6.6432   -4.1783    0.0000 O   0  0  0  0  0  0  0  0  0  0  0  0
    5.7509   -3.2859    0.0000 O   0  0  0  0  0  0  0  0  0  0  0  0
    6.6432   -2.3936    0.0000 O   0  0  0  0  0  0  0  0  0  0  0  0
    7.5355   -3.2859    0.0000 O   0  0  0  0  0  0  0  0  0  0  0  0
  1  2  2  0  0  0  0
  1  3  2  0  0  0  0
  1  4  1  0  0  0  0
  1  5  1  0  0  0  0
M  END
> <#>
518

> <PLATE>
LAT007

> <ROW>
F

> <COL>
6

> <COORD>
F06

> <LATID>
LAT007F06

> <Supplier>
Fisher

> <Suplier_CAT#>
A-173

> <Name>
Molybdic Acid

> <Concentration_(mM)>
2.5

> <IC50_(µM)>
inactive

> <Yeast_Active?>
-

> <Pubchem_CID>
82208

$$$$
