
  -ISIS-  08130814242D

 25 28  0  0  0  0  0  0  0  0999 V2000
   -1.9500   -0.9792    0.0000 C   0  0  0  0  0  0  0  0  0  0  0  0
    0.4042    1.7458    0.0000 N   0  0  3  0  0  0  0  0  0  0  0  0
   -0.5625    1.4000    0.0000 C   0  0  0  0  0  0  0  0  0  0  0  0
   -2.8958   -1.4000    0.0000 C   0  0  0  0  0  0  0  0  0  0  0  0
   -2.7958   -2.4500    0.0000 N   0  0  0  0  0  0  0  0  0  0  0  0
   -1.7625    0.0458    0.0000 N   0  0  0  0  0  0  0  0  0  0  0  0
   -1.2458   -1.7542    0.0000 C   0  0  0  0  0  0  0  0  0  0  0  0
   -0.7625    0.3833    0.0000 N   0  0  0  0  0  0  0  0  0  0  0  0
    0.4000    2.7833    0.0000 C   0  0  0  0  0  0  0  0  0  0  0  0
   -1.1833    2.2458    0.0000 S   0  0  0  0  0  0  0  0  0  0  0  0
   -1.7625   -2.6542    0.0000 C   0  0  0  0  0  0  0  0  0  0  0  0
    1.2000    1.0625    0.0000 C   0  0  0  0  0  0  0  0  0  0  0  0
   -0.5833    3.1083    0.0000 C   0  0  0  0  0  0  0  0  0  0  0  0
   -3.7708   -0.8792    0.0000 O   0  0  0  0  0  0  0  0  0  0  0  0
    1.2292    3.4208    0.0000 O   0  0  0  0  0  0  0  0  0  0  0  0
    2.1542    1.4000    0.0000 C   0  0  0  0  0  0  0  0  0  0  0  0
    1.0000    0.0458    0.0000 C   0  0  0  0  0  0  0  0  0  0  0  0
    2.7500   -0.2792    0.0000 C   0  0  0  0  0  0  0  0  0  0  0  0
    1.8000   -0.6167    0.0000 C   0  0  0  0  0  0  0  0  0  0  0  0
    2.9500    0.7208    0.0000 C   0  0  0  0  0  0  0  0  0  0  0  0
   -0.2000   -1.7500    0.0000 C   0  0  0  0  0  0  0  0  0  0  0  0
    3.5500   -0.9792    0.0000 O   0  0  0  0  0  0  0  0  0  0  0  0
   -1.2458   -3.5542    0.0000 C   0  0  0  0  0  0  0  0  0  0  0  0
    0.3042   -2.6500    0.0000 C   0  0  0  0  0  0  0  0  0  0  0  0
   -0.2000   -3.5542    0.0000 C   0  0  0  0  0  0  0  0  0  0  0  0
  2  3  1  0  0  0  0
  3  8  2  0  0  0  0
  4  1  1  0  0  0  0
  5  4  1  0  0  0  0
  6  1  2  0  0  0  0
  7  1  1  0  0  0  0
  8  6  1  0  0  0  0
  9  2  1  0  0  0  0
 10  3  1  0  0  0  0
 11  7  2  0  0  0  0
 12  2  1  0  0  0  0
 13 10  1  0  0  0  0
 14  4  2  0  0  0  0
 15  9  2  0  0  0  0
 16 12  2  0  0  0  0
 17 12  1  0  0  0  0
 18 19  1  0  0  0  0
 19 17  2  0  0  0  0
 20 16  1  0  0  0  0
 21  7  1  0  0  0  0
 22 18  1  0  0  0  0
 23 11  1  0  0  0  0
 24 21  2  0  0  0  0
 25 24  1  0  0  0  0
 11  5  1  0  0  0  0
 25 23  2  0  0  0  0
 13  9  1  0  0  0  0
 20 18  2  0  0  0  0
M  END
> <#>
1017

> <PLATE>
LAT013

> <ROW>
A

> <COL>
9

> <COORD>
A09

> <LATID>
LAT013A09

> <Supplier>
Chembridge

> <Suplier_CAT#>
5773795

> <Name>
Novel

> <Sec_Name>
244_G05

> <Concentration_(mM)>
2.5

> <IC50_(µM)>
100

> <Yeast_Active?>
-

> <Pubchem_CID>
NULL

$$$$
