
  -ISIS-  08130814242D

 19 19  0  0  0  0  0  0  0  0999 V2000
    3.4542   -1.6250    0.0000 C   0  0  0  0  0  0  0  0  0  0  0  0
    2.7417   -2.8625    0.0000 N   0  3  0  0  0  0  0  0  0  0  0  0
    2.7417   -1.2125    0.0000 C   0  0  3  0  0  0  0  0  0  0  0  0
    3.4542   -2.4500    0.0000 C   0  0  0  0  0  0  0  0  0  0  0  0
    6.3167   -1.6125    0.0000 C   0  0  0  0  0  0  0  0  0  0  0  0
    5.6000   -1.2042    0.0000 N   0  0  0  0  0  0  0  0  0  0  0  0
    4.1667   -1.2042    0.0000 C   0  0  0  0  0  0  0  0  0  0  0  0
    4.1667   -2.8625    0.0000 C   0  0  0  0  0  0  0  0  0  0  0  0
    2.7417   -3.6875    0.0000 O   0  5  0  0  0  0  0  0  0  0  0  0
    2.0292   -2.4500    0.0000 O   0  0  0  0  0  0  0  0  0  0  0  0
    4.8875   -1.6167    0.0000 C   0  0  0  0  0  0  0  0  0  0  0  0
    7.0292   -1.2000    0.0000 O   0  0  0  0  0  0  0  0  0  0  0  0
    2.7417   -0.3875    0.0000 F   0  0  0  0  0  0  0  0  0  0  0  0
    2.0292   -1.6250    0.0000 F   0  0  0  0  0  0  0  0  0  0  0  0
    3.3292   -0.6250    0.0000 F   0  0  0  0  0  0  0  0  0  0  0  0
    6.3167   -2.4375    0.0000 C   0  0  3  0  0  0  0  0  0  0  0  0
    4.8875   -2.4500    0.0000 C   0  0  0  0  0  0  0  0  0  0  0  0
    7.0292   -2.8500    0.0000 C   0  0  0  0  0  0  0  0  0  0  0  0
    5.6042   -2.8542    0.0000 C   0  0  0  0  0  0  0  0  0  0  0  0
  2  4  1  0  0  0  0
  3  1  1  0  0  0  0
  4  1  2  0  0  0  0
  5  6  1  0  0  0  0
  6 11  1  0  0  0  0
  7  1  1  0  0  0  0
  8  4  1  0  0  0  0
  9  2  1  0  0  0  0
 10  2  2  0  0  0  0
 11  7  2  0  0  0  0
 12  5  2  0  0  0  0
 13  3  1  0  0  0  0
 14  3  1  0  0  0  0
 15  3  1  0  0  0  0
 16  5  1  0  0  0  0
 17 11  1  0  0  0  0
 18 16  1  0  0  0  0
 19 16  1  0  0  0  0
 17  8  2  0  0  0  0
M  CHG  2   2   1   9  -1
M  END
> <#>
127

> <PLATE>
LAT002

> <ROW>
G

> <COL>
7

> <COORD>
G07

> <LATID>
LAT002G07

> <Supplier>
Microsource

> <Suplier_CAT#>
01500995

> <Name>
Flutamide

> <Concentration_(mM)>
2.5

> <IC50_(µM)>
18

> <Yeast_Active?>
-

> <Pubchem_CID>
3397

> <Description>
Antiandrogen

$$$$
