
  -ISIS-  08130814242D

 12 11  0  0  0  0  0  0  0  0999 V2000
   -4.3167   -0.0861    0.0000 O   0  0  0  0  0  0  0  0  0  0  0  0
   -3.0667   -0.0861    0.0000 C   0  0  0  0  0  0  0  0  0  0  0  0
   -2.4417    0.9965    0.0000 C   0  0  2  0  0  0  0  0  0  0  0  0
   -3.0667    2.0790    0.0000 O   0  0  0  0  0  0  0  0  0  0  0  0
   -1.1917    0.9965    0.0000 C   0  0  1  0  0  0  0  0  0  0  0  0
   -0.5667    2.0790    0.0000 O   0  0  0  0  0  0  0  0  0  0  0  0
   -0.5667   -0.0861    0.0000 C   0  0  1  0  0  0  0  0  0  0  0  0
   -1.1917   -1.1686    0.0000 O   0  0  0  0  0  0  0  0  0  0  0  0
    0.6833   -0.0861    0.0000 C   0  0  2  0  0  0  0  0  0  0  0  0
    1.3083   -1.1686    0.0000 O   0  0  0  0  0  0  0  0  0  0  0  0
    1.3083    0.9965    0.0000 C   0  0  0  0  0  0  0  0  0  0  0  0
    2.6167    0.9998    0.0000 O   0  0  0  0  0  0  0  0  0  0  0  0
  1  2  1  0  0  0  0
  2  3  1  0  0  0  0
  3  4  1  6  0  0  0
  3  5  1  0  0  0  0
  5  6  1  1  0  0  0
  5  7  1  0  0  0  0
  7  8  1  6  0  0  0
  7  9  1  0  0  0  0
  9 10  1  1  0  0  0
  9 11  1  0  0  0  0
 11 12  1  0  0  0  0
M  END
> <#>
424

> <PLATE>
LAT006

> <ROW>
H

> <COL>
4

> <COORD>
H04

> <LATID>
LAT006H04

> <Supplier>
Nutirional Biochemicals

> <Suplier_CAT#>
Dulcitol

> <Name>
Dulcitol

> <Concentration_(mM)>
2.5

> <IC50_(µM)>
inactive

> <Yeast_Active?>
-

> <Pubchem_CID>
453

$$$$
