
  -ISIS-  08130814242D

 26 27  0  0  0  0  0  0  0  0999 V2000
    7.1062   -3.0629    0.0000 S   0  0  0  0  0  0  0  0  0  0  0  0
    6.3334   -3.5090    0.0000 S   0  0  0  0  0  0  0  0  0  0  0  0
    7.8789   -3.5090    0.0000 C   0  0  0  0  0  0  0  0  0  0  0  0
    8.6517   -3.0629    0.0000 C   0  0  0  0  0  0  0  0  0  0  0  0
    9.4245   -3.5090    0.0000 C   0  0  0  0  0  0  0  0  0  0  0  0
    9.4245   -4.4013    0.0000 C   0  0  0  0  0  0  0  0  0  0  0  0
    8.6517   -4.8475    0.0000 C   0  0  0  0  0  0  0  0  0  0  0  0
    7.8789   -4.4013    0.0000 C   0  0  0  0  0  0  0  0  0  0  0  0
   10.1973   -4.8475    0.0000 N   0  3  0  0  0  0  0  0  0  0  0  0
   10.1973   -5.7398    0.0000 O   0  0  0  0  0  0  0  0  0  0  0  0
   10.9700   -4.4013    0.0000 O   0  5  0  0  0  0  0  0  0  0  0  0
   10.1973   -3.0629    0.0000 C   0  0  0  0  0  0  0  0  0  0  0  0
   10.1973   -2.1705    0.0000 O   0  0  0  0  0  0  0  0  0  0  0  0
   10.9700   -3.5090    0.0000 O   0  0  0  0  0  0  0  0  0  0  0  0
    5.5606   -3.0629    0.0000 C   0  0  0  0  0  0  0  0  0  0  0  0
    4.7879   -3.5090    0.0000 C   0  0  0  0  0  0  0  0  0  0  0  0
    4.0151   -3.0629    0.0000 C   0  0  0  0  0  0  0  0  0  0  0  0
    4.0151   -2.1705    0.0000 C   0  0  0  0  0  0  0  0  0  0  0  0
    4.7879   -1.7244    0.0000 C   0  0  0  0  0  0  0  0  0  0  0  0
    5.5606   -2.1705    0.0000 C   0  0  0  0  0  0  0  0  0  0  0  0
    3.2423   -1.7244    0.0000 N   0  3  0  0  0  0  0  0  0  0  0  0
    3.2423   -0.8321    0.0000 O   0  0  0  0  0  0  0  0  0  0  0  0
    2.4695   -2.1705    0.0000 O   0  5  0  0  0  0  0  0  0  0  0  0
    3.2423   -3.5090    0.0000 C   0  0  0  0  0  0  0  0  0  0  0  0
    3.2423   -4.4013    0.0000 O   0  0  0  0  0  0  0  0  0  0  0  0
    2.4695   -3.0629    0.0000 O   0  0  0  0  0  0  0  0  0  0  0  0
  1  2  1  0  0  0  0
  3  4  1  0  0  0  0
  4  5  2  0  0  0  0
  5  6  1  0  0  0  0
  6  7  2  0  0  0  0
  7  8  1  0  0  0  0
  3  8  2  0  0  0  0
  9 10  2  0  0  0  0
  9 11  1  0  0  0  0
  6  9  1  0  0  0  0
 12 13  2  0  0  0  0
 12 14  1  0  0  0  0
  5 12  1  0  0  0  0
  1  3  1  0  0  0  0
 15 16  1  0  0  0  0
 16 17  2  0  0  0  0
 17 18  1  0  0  0  0
 18 19  2  0  0  0  0
 19 20  1  0  0  0  0
 15 20  2  0  0  0  0
 21 22  2  0  0  0  0
 21 23  1  0  0  0  0
 18 21  1  0  0  0  0
 24 25  2  0  0  0  0
 24 26  1  0  0  0  0
 17 24  1  0  0  0  0
  2 15  1  0  0  0  0
M  CHG  4   9   1  11  -1  21   1  23  -1
M  END
> <#>
514

> <PLATE>
LAT007

> <ROW>
B

> <COL>
6

> <COORD>
B06

> <LATID>
LAT007B06

> <Supplier>
Sigma

> <Suplier_CAT#>
D-8130

> <Name>
3-Carboxy-4-Nitrophenyl Disulfide

> <Concentration_(mM)>
2.5

> <IC50_(µM)>
inactive

> <Yeast_Active?>
-

> <Pubchem_CID>
6254

$$$$
