
  -ISIS-  08130814242D

 22 24  0  0  0  0  0  0  0  0999 V2000
    2.6500   -1.1792    0.0000 N   0  3  0  0  0  0  0  0  0  0  0  0
    0.0500   -0.2542    0.0000 C   0  0  0  0  0  0  0  0  0  0  0  0
   -2.5125   -1.3792    0.0000 N   0  0  3  0  0  0  0  0  0  0  0  0
    0.6875   -0.5000    0.0000 C   0  0  0  0  0  0  0  0  0  0  0  0
   -0.4958   -0.6792    0.0000 O   0  0  0  0  0  0  0  0  0  0  0  0
   -3.5958   -1.5375    0.0000 N   0  0  0  0  0  0  0  0  0  0  0  0
   -3.3125   -2.1375    0.0000 N   0  0  0  0  0  0  0  0  0  0  0  0
    1.2292   -0.0292    0.0000 C   0  0  0  0  0  0  0  0  0  0  0  0
    1.9875   -0.9542    0.0000 C   0  0  0  0  0  0  0  0  0  0  0  0
   -2.6333   -2.0542    0.0000 C   0  0  0  0  0  0  0  0  0  0  0  0
   -3.0958   -1.0542    0.0000 C   0  0  0  0  0  0  0  0  0  0  0  0
    1.8667   -0.2792    0.0000 C   0  0  0  0  0  0  0  0  0  0  0  0
   -0.1708    0.3833    0.0000 C   0  0  0  0  0  0  0  0  0  0  0  0
   -1.8500   -1.1542    0.0000 N   0  0  0  0  0  0  0  0  0  0  0  0
   -1.0333   -0.2792    0.0000 C   0  0  0  0  0  0  0  0  0  0  0  0
   -1.7125   -0.4792    0.0000 C   0  0  0  0  0  0  0  0  0  0  0  0
    0.8042   -1.1542    0.0000 C   0  0  0  0  0  0  0  0  0  0  0  0
   -0.8500    0.3833    0.0000 C   0  0  0  0  0  0  0  0  0  0  0  0
    2.7875   -1.8542    0.0000 O   0  5  0  0  0  0  0  0  0  0  0  0
    3.1667   -0.7167    0.0000 O   0  0  0  0  0  0  0  0  0  0  0  0
    1.4667   -1.4000    0.0000 C   0  0  0  0  0  0  0  0  0  0  0  0
    1.1042    0.6458    0.0000 Br  0  0  0  0  0  0  0  0  0  0  0  0
  2  4  1  0  0  0  0
  3 14  1  0  0  0  0
  4 17  1  0  0  0  0
  5  2  1  0  0  0  0
  6 11  2  0  0  0  0
  7 10  2  0  0  0  0
  8 12  1  0  0  0  0
  9  1  1  0  0  0  0
 10  3  1  0  0  0  0
 11  3  1  0  0  0  0
 12  9  2  0  0  0  0
 13  2  2  0  0  0  0
 14 16  2  0  0  0  0
 15  5  1  0  0  0  0
 16 15  1  0  0  0  0
 17 21  2  0  0  0  0
 18 13  1  0  0  0  0
 19  1  1  0  0  0  0
 20  1  2  0  0  0  0
 21  9  1  0  0  0  0
 22  8  1  0  0  0  0
  4  8  2  0  0  0  0
 15 18  2  0  0  0  0
  6  7  1  0  0  0  0
M  CHG  2   1   1  19  -1
M  END
> <#>
864

> <PLATE>
LAT011

> <ROW>
H

> <COL>
9

> <COORD>
H09

> <LATID>
LAT011H09

> <Supplier>
Chembridge

> <Suplier_CAT#>
5655959

> <Name>
Novel

> <Sec_Name>
202_E11

> <Concentration_(mM)>
2.5

> <IC50_(µM)>
100

> <Yeast_Active?>
-

> <Pubchem_CID>
1354718

$$$$
