
  -ISIS-  08130814242D

 27 29  0  0  0  0  0  0  0  0999 V2000
    2.0667    1.8125    0.0000 C   0  0  3  0  0  0  0  0  0  0  0  0
    2.3667    0.9458    0.0000 C   0  0  0  0  0  0  0  0  0  0  0  0
   -0.0458    0.7000    0.0000 C   0  0  0  0  0  0  0  0  0  0  0  0
   -0.3500   -0.1500    0.0000 N   0  0  0  0  0  0  0  0  0  0  0  0
    0.8500    0.9458    0.0000 C   0  0  3  0  0  0  0  0  0  0  0  0
   -1.3125   -0.1167    0.0000 C   0  0  0  0  0  0  0  0  0  0  0  0
    1.6292    0.3708    0.0000 O   0  0  0  0  0  0  0  0  0  0  0  0
    1.1500    1.8125    0.0000 C   0  0  0  0  0  0  0  0  0  0  0  0
   -1.5708    0.7625    0.0000 S   0  0  0  0  0  0  0  0  0  0  0  0
    1.8167    2.7125    0.0000 C   0  0  0  0  0  0  0  0  0  0  0  0
   -0.7958    1.3125    0.0000 C   0  0  0  0  0  0  0  0  0  0  0  0
   -1.9083   -0.8292    0.0000 N   0  0  0  0  0  0  0  0  0  0  0  0
    3.2542    0.6958    0.0000 O   0  0  0  0  0  0  0  0  0  0  0  0
    2.4792    3.3958    0.0000 O   0  0  0  0  0  0  0  0  0  0  0  0
   -2.8333   -0.6792    0.0000 C   0  0  0  0  0  0  0  0  0  0  0  0
    2.9875    1.6125    0.0000 C   0  0  0  0  0  0  0  0  0  0  0  0
    0.9000    2.9625    0.0000 O   0  0  0  0  0  0  0  0  0  0  0  0
    0.1792    1.9125    0.0000 C   0  0  0  0  0  0  0  0  0  0  0  0
   -4.6625   -0.3792    0.0000 C   0  0  0  0  0  0  0  0  0  0  0  0
   -3.1500    0.2125    0.0000 C   0  0  0  0  0  0  0  0  0  0  0  0
   -3.4208   -1.4042    0.0000 C   0  0  0  0  0  0  0  0  0  0  0  0
   -4.3458   -1.2542    0.0000 C   0  0  0  0  0  0  0  0  0  0  0  0
   -4.0958    0.3625    0.0000 C   0  0  0  0  0  0  0  0  0  0  0  0
    0.5500    3.9208    0.0000 C   0  0  0  0  0  0  0  0  0  0  0  0
   -5.5833   -0.2375    0.0000 C   0  0  0  0  0  0  0  0  0  0  0  0
    3.6042    2.3208    0.0000 C   0  0  0  0  0  0  0  0  0  0  0  0
   -0.3333    4.1042    0.0000 C   0  0  0  0  0  0  0  0  0  0  0  0
  2  1  1  0  0  0  0
  3  5  1  0  0  0  0
  4  3  1  0  0  0  0
  5  8  1  0  0  0  0
  6  4  2  0  0  0  0
  7  2  1  0  0  0  0
  8  1  1  0  0  0  0
  9 11  1  0  0  0  0
 10  1  1  0  0  0  0
 11  3  2  0  0  0  0
 12  6  1  0  0  0  0
 13  2  2  0  0  0  0
 14 10  2  0  0  0  0
 15 12  1  0  0  0  0
 16  1  1  0  0  0  0
 17 10  1  0  0  0  0
 18  5  1  0  0  0  0
 19 22  1  0  0  0  0
 20 15  2  0  0  0  0
 21 15  1  0  0  0  0
 22 21  2  0  0  0  0
 23 20  1  0  0  0  0
 24 17  1  0  0  0  0
 25 19  1  0  0  0  0
 26 16  1  0  0  0  0
 27 24  1  0  0  0  0
  5  7  1  0  0  0  0
  9  6  1  0  0  0  0
 23 19  2  0  0  0  0
M  END
> <#>
846

> <PLATE>
LAT011

> <ROW>
F

> <COL>
7

> <COORD>
F07

> <LATID>
LAT011F07

> <Supplier>
Chembridge

> <Suplier_CAT#>
5647693

> <Name>
Novel

> <Sec_Name>
198_C04

> <Concentration_(mM)>
2.5

> <IC50_(µM)>
21

> <Yeast_Active?>
-

> <Pubchem_CID>
1097108

$$$$
