
  -ISIS-  08130814242D

  9  6  0  0  0  0  0  0  0  0999 V2000
    6.1610   -3.1922    0.0000 Ba  0  2  0  0  0  0  0  0  0  0  0  0
    7.8432   -4.0587    0.0000 C   0  0  0  0  0  0  0  0  0  0  0  0
    8.7356   -4.0587    0.0000 C   0  0  0  0  0  0  0  0  0  0  0  0
    7.3971   -4.8315    0.0000 O   0  0  0  0  0  0  0  0  0  0  0  0
    7.3971   -3.2859    0.0000 O   0  5  0  0  0  0  0  0  0  0  0  0
    5.1663   -2.5132    0.0000 C   0  0  0  0  0  0  0  0  0  0  0  0
    4.7201   -3.2859    0.0000 C   0  0  0  0  0  0  0  0  0  0  0  0
    4.7201   -1.7404    0.0000 O   0  0  0  0  0  0  0  0  0  0  0  0
    6.0586   -2.5132    0.0000 O   0  5  0  0  0  0  0  0  0  0  0  0
  2  4  2  0  0  0  0
  2  5  1  0  0  0  0
  2  3  1  0  0  0  0
  6  7  1  0  0  0  0
  6  8  2  0  0  0  0
  6  9  1  0  0  0  0
M  CHG  3   1   2   5  -1   9  -1
M  END
> <#>
515

> <PLATE>
LAT007

> <ROW>
C

> <COL>
6

> <COORD>
C06

> <LATID>
LAT007C06

> <Supplier>
Sigma

> <Suplier_CAT#>
B-8767

> <Name>
Barium Acetate

> <Concentration_(mM)>
25

> <IC50_(µM)>
inactive

> <Yeast_Active?>
-

> <Pubchem_CID>
10980

$$$$
